aqu_catunit.ele: written by SWAT+ editor v1.2.3 on 2021-01-24 15:52
      id  name                   obj_typ  obj_typ_no      bsn_frac      sub_frac      reg_frac  
       1  aqu010                     aqu           1       0.05344       0.00000       0.00000  
       2  aqu020                     aqu           2       0.04346       0.00000       0.00000  
       3  aqu030                     aqu           3       0.02265       0.00000       0.00000  
       4  aqu040                     aqu           4       0.02788       0.00000       0.00000  
       5  aqu050                     aqu           5       0.07425       0.00000       0.00000  
       6  aqu060                     aqu           6       0.02448       0.00000       0.00000  
       7  aqu070                     aqu           7       0.04352       0.00000       0.00000  
       8  aqu080                     aqu           8       0.02534       0.00000       0.00000  
       9  aqu090                     aqu           9       0.02847       0.00000       0.00000  
      10  aqu100                     aqu          10       0.05565       0.00000       0.00000  
      11  aqu110                     aqu          11       0.02410       0.00000       0.00000  
      12  aqu120                     aqu          12       0.09652       0.00000       0.00000  
      13  aqu130                     aqu          13       0.04799       0.00000       0.00000  
      14  aqu140                     aqu          14       0.02367       0.00000       0.00000  
      15  aqu150                     aqu          15       0.08223       0.00000       0.00000  
      16  aqu160                     aqu          16       0.10515       0.00000       0.00000  
      17  aqu170                     aqu          17       0.07997       0.00000       0.00000  
      18  aqu180                     aqu          18       0.04001       0.00000       0.00000  
      19  aqu190                     aqu          19       0.05263       0.00000       0.00000  
      20  aqu200                     aqu          20       0.04858       0.00000       0.00000  
      21  aqu_deep17                 aqu          21       1.00000       0.00000       0.00000  
