aquifer.con: written by SWAT+ editor v1.2.3 on 2021-01-24 15:52
      id  name                gis_id          area           lat           lon          elev       aqu               wst       cst      ovfl      rule   out_tot       obj_typ    obj_id       hyd_typ          frac  
       1  aqu010                  10     247.75000      53.07024      -4.21114     290.07871         1      sta5306n420w         0         0         0         2           sdc        60           tot       1.00000           aqu        21           rhg       1.00000  
       2  aqu020                  20     201.50000      53.06340      -4.23070     215.60174         2      sta5306n420w         0         0         0         2           sdc        66           tot       1.00000           aqu        21           rhg       1.00000  
       3  aqu030                  30     105.00000      53.06636      -4.20311     288.91190         3      sta5306n420w         0         0         0         2           sdc        89           tot       1.00000           aqu        21           rhg       1.00000  
       4  aqu040                  40     129.25000      53.06437      -4.19431     363.35590         4      sta5306n420w         0         0         0         2           sdc        58           tot       1.00000           aqu        21           rhg       1.00000  
       5  aqu050                  50     344.25000      53.06004      -4.17150     273.83951         5      sta5306n420w         0         0         0         2           sdc        68           tot       1.00000           aqu        21           rhg       1.00000  
       6  aqu060                  60     113.50000      53.05836      -4.24297     183.22247         6      sta5306n428w         0         0         0         2           sdc        85           tot       1.00000           aqu        21           rhg       1.00000  
       7  aqu070                  70     201.75000      53.04824      -4.27921     114.63445         7      sta5306n428w         0         0         0         2           sdc         9           tot       1.00000           aqu        21           rhg       1.00000  
       8  aqu080                  80     117.50000      53.05115      -4.26278     123.20000         8      sta5306n428w         0         0         0         2           sdc        13           tot       1.00000           aqu        21           rhg       1.00000  
       9  aqu090                  90     132.00000      53.04933      -4.17279     411.45833         9      sta5306n420w         0         0         0         2           sdc        82           tot       1.00000           aqu        21           rhg       1.00000  
      10  aqu100                 100     258.00000      53.03854      -4.20162     418.11628        10      sta5302n420w         0         0         0         2           sdc        62           tot       1.00000           aqu        21           rhg       1.00000  
      11  aqu110                 110     111.75000      53.04463      -4.18320     422.74720        11      sta5306n420w         0         0         0         2           sdc        70           tot       1.00000           aqu        21           rhg       1.00000  
      12  aqu120                 120     447.50000      53.03469      -4.24934     266.61173        12      sta5302n427w         0         0         0         2           sdc        37           tot       1.00000           aqu        21           rhg       1.00000  
      13  aqu130                 130     222.50000      53.03556      -4.22028     380.34382        13      sta5302n420w         0         0         0         2           sdc        48           tot       1.00000           aqu        21           rhg       1.00000  
      14  aqu140                 140     109.75000      53.04083      -4.24595     225.62870        14      sta5302n427w         0         0         0         2           sdc        77           tot       1.00000           aqu        21           rhg       1.00000  
      15  aqu150                 150     381.25000      53.02918      -4.28911     154.10623        15      sta5302n427w         0         0         0         2           sdc        46           tot       1.00000           aqu        21           rhg       1.00000  
      16  aqu160                 160     487.50000      53.02469      -4.25231     319.16410        16      sta5302n427w         0         0         0         2           sdc        33           tot       1.00000           aqu        21           rhg       1.00000  
      17  aqu170                 170     370.75000      53.04337      -4.30686      84.86109        17      sta5306n428w         0         0         0         2           sdc         1           tot       1.00000           aqu        21           rhg       1.00000  
      18  aqu180                 180     185.50000      53.05238      -4.20068     217.86927        18      sta5306n420w         0         0         0         2           sdc        40           tot       1.00000           aqu        21           rhg       1.00000  
      19  aqu190                 190     244.00000      53.05235      -4.25079     173.86168        19      sta5306n428w         0         0         0         2           sdc        19           tot       1.00000           aqu        21           rhg       1.00000  
      20  aqu200                 200     225.25000      53.04777      -4.22037     184.41620        20      sta5306n420w         0         0         0         2           sdc        27           tot       1.00000           aqu        21           rhg       1.00000  
      21  aqu_deep17              17    4636.25000      53.04337      -4.30686      84.86109        21      sta5306n428w         0         0         0         0  
