hmd.cli: Relative humidity file names - file written by SWAT+ editor 2021-01-24 15:51:14.307072
filename
r52931.hmd
r52934.hmd
r52938.hmd
r52941.hmd
r52944.hmd
r52947.hmd
r52950.hmd
r53231.hmd
r53234.hmd
r53238.hmd
r53241.hmd
r53244.hmd
r53247.hmd
r53250.hmd
