hru.con: written by SWAT+ editor v1.2.3 on 2021-01-24 15:52
      id  name                gis_id          area           lat           lon          elev       hru               wst       cst      ovfl      rule   out_tot  
       1  hru001                   1      31.47163      53.07410      -4.21589     333.79200         1      sta5306n420w         0         0         0         0  
       2  hru002                   2       4.02837      53.07558      -4.21791     352.12500         2      sta5306n420w         0         0         0         0  
       3  hru003                   3       7.25000      53.07100      -4.21300     275.55172         3      sta5306n420w         0         0         0         0  
       4  hru004                   4       1.00000      53.07829      -4.21142     388.00000         4      sta5306n420w         0         0         0         0  
       5  hru005                   5       0.25000      53.07819      -4.21048     382.00000         5      sta5306n420w         0         0         0         0  
       6  hru006                   6       2.50000      53.07753      -4.20955     369.20000         6      sta5306n420w         0         0         0         0  
       7  hru007                   7       6.83333      53.07637      -4.20720     339.50000         7      sta5306n420w         0         0         0         0  
       8  hru008                   8       3.41667      53.07591      -4.20646     329.30769         8      sta5306n420w         0         0         0         0  
       9  hru009                   9       2.25000      53.07746      -4.21202     379.44444         9      sta5306n420w         0         0         0         0  
      10  hru010                  10       9.75000      53.07249      -4.21021     295.38462        10      sta5306n420w         0         0         0         0  
      11  hru011                  11       1.25000      53.07227      -4.20958     292.20000        11      sta5306n420w         0         0         0         0  
      12  hru012                  12       3.75000      53.07470      -4.20951     327.20000        12      sta5306n420w         0         0         0         0  
      13  hru013                  13       1.00000      53.07440      -4.20879     319.50000        13      sta5306n420w         0         0         0         0  
      14  hru014                  14       3.00000      53.07613      -4.21268     358.50000        14      sta5306n420w         0         0         0         0  
      15  hru015                  15       3.75000      53.07188      -4.21165     284.46667        15      sta5306n420w         0         0         0         0  
      16  hru016                  16       3.48897      53.07581      -4.20278     325.46154        16      sta5306n420w         0         0         0         0  
      17  hru017                  17      14.76103      53.07567      -4.19846     360.20000        17      sta5306n420w         0         0         0         0  
      18  hru018                  18      10.42373      53.07398      -4.19976     342.36585        18      sta5306n420w         0         0         0         0  
      19  hru019                  19       2.79661      53.07338      -4.20311     312.36364        19      sta5306n420w         0         0         0         0  
      20  hru020                  20       1.77966      53.07311      -4.20372     299.85714        20      sta5306n420w         0         0         0         0  
      21  hru021                  21       1.75000      53.07388      -4.20749     312.71429        21      sta5306n420w         0         0         0         0  
      22  hru022                  22       1.00000      53.07297      -4.20723     296.50000        22      sta5306n420w         0         0         0         0  
      23  hru023                  23       2.50000      53.07105      -4.20743     280.50000        23      sta5306n420w         0         0         0         0  
      24  hru024                  24       2.75000      53.07084      -4.20800     280.18182        24      sta5306n420w         0         0         0         0  
      25  hru025                  25       1.65672      53.07331      -4.19879     335.16667        25      sta5306n420w         0         0         0         0  
      26  hru026                  26      14.63433      53.07326      -4.19492     407.71698        26      sta5306n420w         0         0         0         0  
      27  hru027                  27       2.20896      53.07202      -4.18889     553.75000        27      sta5306n420w         0         0         0         0  
      28  hru028                  28      18.22148      53.06888      -4.21867     283.79630        28      sta5306n420w         0         0         0         0  
      29  hru029                  29      27.02852      53.06550      -4.21496     212.06098        29      sta5306n420w         0         0         0         0  
      30  hru030                  30       3.50000      53.06965      -4.20706     273.00000        30      sta5306n420w         0         0         0         0  
      31  hru031                  31       6.50000      53.06865      -4.20847     259.96154        31      sta5306n420w         0         0         0         0  
      32  hru032                  32       0.50000      53.07180      -4.20381     305.50000        32      sta5306n420w         0         0         0         0  
      33  hru033                  33       2.00000      53.07112      -4.20368     304.50000        33      sta5306n420w         0         0         0         0  
      34  hru034                  34       7.25000      53.06628      -4.22158     255.41379        34      sta5306n420w         0         0         0         0  
      35  hru035                  35       4.50000      53.06421      -4.21881     207.64706        35      sta5306n420w         0         0         0         0  
      36  hru036                  36       1.75000      53.06422      -4.22256     228.28571        36      sta5306n420w         0         0         0         0  
      37  hru037                  37       0.25000      53.06492      -4.22323     212.00000        37      sta5306n420w         0         0         0         0  
      38  hru038                  38       0.25000      53.06447      -4.22321     226.00000        38      sta5306n420w         0         0         0         0  
      39  hru039                  39       6.00000      53.06326      -4.22024     196.95000        39      sta5306n420w         0         0         0         0  
      40  hru040                  40       5.50000      53.06830      -4.21311     244.15000        40      sta5306n420w         0         0         0         0  
      41  hru041                  41      11.17011      53.06059      -4.22167     171.82051        41      sta5306n420w         0         0         0         0  
      42  hru042                  42       2.00489      53.06075      -4.22302     161.00000        42      sta5306n420w         0         0         0         0  
      43  hru043                  43       5.68333      53.05977      -4.21961     143.54545        43      sta5306n420w         0         0         0         0  
      44  hru044                  44       3.10000      53.05924      -4.22021     128.66667        44      sta5306n420w         0         0         0         0  
      45  hru045                  45       1.29167      53.05893      -4.22099     121.60000        45      sta5306n420w         0         0         0         0  
      46  hru046                  46      13.17568      53.07047      -4.22493     296.17308        46      sta5306n420w         0         0         0         0  
      47  hru047                  47       5.57432      53.07043      -4.22579     291.90909        47      sta5306n420w         0         0         0         0  
      48  hru048                  48       9.60000      53.07009      -4.22934     283.48485        48      sta5306n420w         0         0         0         0  
      49  hru049                  49       6.40000      53.06902      -4.22867     273.09091        49      sta5306n420w         0         0         0         0  
      50  hru050                  50      13.22414      53.06829      -4.22334     277.28846        50      sta5306n420w         0         0         0         0  
      51  hru051                  51       1.52586      53.06942      -4.22272     289.66667        51      sta5306n420w         0         0         0         0  
      52  hru052                  52       2.66667      53.06465      -4.22568     213.60000        52      sta5306n420w         0         0         0         0  
      53  hru053                  53       1.33333      53.06467      -4.22680     144.00000        53      sta5306n420w         0         0         0         0  
      54  hru054                  54       6.34615      53.06865      -4.23354     282.04545        54      sta5306n420w         0         0         0         0  
      55  hru055                  55       5.19231      53.06818      -4.23311     278.61111        55      sta5306n420w         0         0         0         0  
      56  hru056                  56       3.46154      53.06635      -4.22975     250.00000        56      sta5306n420w         0         0         0         0  
      57  hru057                  57       4.81459      53.06762      -4.23634     286.93750        57      sta5306n420w         0         0         0         0  
      58  hru058                  58       9.32827      53.06683      -4.23631     286.38710        58      sta5306n420w         0         0         0         0  
      59  hru059                  59       5.45510      53.06333      -4.22904     205.33333        59      sta5306n420w         0         0         0         0  
      60  hru060                  60       5.15204      53.06325      -4.22907     157.88235        60      sta5306n420w         0         0         0         0  
      61  hru061                  61      13.00000      53.06110      -4.23043     178.40625        61      sta5306n420w         0         0         0         0  
      62  hru062                  62       3.25000      53.06179      -4.23100     159.00000        62      sta5306n420w         0         0         0         0  
      63  hru063                  63      16.50000      53.06516      -4.23891     299.84483        63      sta5306n428w         0         0         0         0  
      64  hru064                  64       2.92742      53.06232      -4.23511     195.27273        64      sta5306n420w         0         0         0         0  
      65  hru065                  65       5.32258      53.06199      -4.23543     228.75000        65      sta5306n420w         0         0         0         0  
      66  hru066                  66       4.75000      53.06229      -4.22581     193.94737        66      sta5306n420w         0         0         0         0  
      67  hru067                  67       0.75000      53.06218      -4.22558     183.66667        67      sta5306n420w         0         0         0         0  
      68  hru068                  68       1.50000      53.06202      -4.22582     180.33333        68      sta5306n420w         0         0         0         0  
      69  hru069                  69       3.92857      53.06035      -4.22529     158.86667        69      sta5306n420w         0         0         0         0  
      70  hru070                  70       1.57143      53.06008      -4.22560     147.66667        70      sta5306n420w         0         0         0         0  
      71  hru071                  71       8.75000      53.05943      -4.23301     163.90323        71      sta5306n420w         0         0         0         0  
      72  hru072                  72       1.00000      53.05839      -4.22980     123.50000        72      sta5306n420w         0         0         0         0  
      73  hru073                  73       0.75000      53.05803      -4.23084     106.33333        73      sta5306n420w         0         0         0         0  
      74  hru074                  74       0.25000      53.05852      -4.22887     120.00000        74      sta5306n420w         0         0         0         0  
      75  hru075                  75       2.50000      53.05747      -4.23457     132.40000        75      sta5306n420w         0         0         0         0  
      76  hru076                  76       3.00000      53.05585      -4.23328     104.33333        76      sta5306n420w         0         0         0         0  
      77  hru077                  77       3.50000      53.05523      -4.23478     120.14286        77      sta5306n420w         0         0         0         0  
      78  hru078                  78       2.50000      53.05524      -4.23333     113.30000        78      sta5306n420w         0         0         0         0  
      79  hru079                  79       8.00000      53.05431      -4.23304     121.34375        79      sta5306n420w         0         0         0         0  
      80  hru080                  80       1.25000      53.05681      -4.22864     121.80000        80      sta5306n420w         0         0         0         0  
      81  hru081                  81       2.00000      53.05426      -4.23136     100.37500        81      sta5306n420w         0         0         0         0  
      82  hru082                  82       1.30952      53.05435      -4.23075     104.60000        82      sta5306n420w         0         0         0         0  
      83  hru083                  83       9.69048      53.05382      -4.23071      98.02703        83      sta5306n420w         0         0         0         0  
      84  hru084                  84       1.50000      53.05682      -4.22767     103.83333        84      sta5306n420w         0         0         0         0  
      85  hru085                  85       1.50000      53.05750      -4.22708     108.33333        85      sta5306n420w         0         0         0         0  
      86  hru086                  86       2.25000      53.05800      -4.22711     125.55556        86      sta5306n420w         0         0         0         0  
      87  hru087                  87       2.25000      53.05674      -4.23019      98.22222        87      sta5306n420w         0         0         0         0  
      88  hru088                  88       2.25000      53.05704      -4.23046     117.44444        88      sta5306n420w         0         0         0         0  
      89  hru089                  89       0.50000      53.05693      -4.22954     105.50000        89      sta5306n420w         0         0         0         0  
      90  hru090                  90      11.81939      53.07157      -4.19642     388.13636        90      sta5306n420w         0         0         0         0  
      91  hru091                  91       1.34311      53.07137      -4.20013     322.40000        91      sta5306n420w         0         0         0         0  
      92  hru092                  92       5.06250      53.06843      -4.20599     270.60000        92      sta5306n420w         0         0         0         0  
      93  hru093                  93       2.02500      53.06950      -4.20341     292.25000        93      sta5306n420w         0         0         0         0  
      94  hru094                  94       9.34615      53.07034      -4.19443     418.41935        94      sta5306n420w         0         0         0         0  
      95  hru095                  95       2.33654      53.07034      -4.18926     564.55556        95      sta5306n420w         0         0         0         0  
      96  hru096                  96       8.56731      53.06894      -4.19958     327.87097        96      sta5306n420w         0         0         0         0  
      97  hru097                  97      32.21207      53.06614      -4.20273     278.01626        97      sta5306n420w         0         0         0         0  
      98  hru098                  98       5.49962      53.06587      -4.20516     250.76190        98      sta5306n420w         0         0         0         0  
      99  hru099                  99       3.34854      53.06098      -4.21115     167.83333        99      sta5306n420w         0         0         0         0  
     100  hru100                 100      23.43977      53.06178      -4.21087     185.76190       100      sta5306n420w         0         0         0         0  
     101  hru101                 101      67.03601      53.06570      -4.18815     438.97717       101      sta5306n420w         0         0         0         0  
     102  hru102                 102      42.96399      53.06399      -4.19866     285.70866       102      sta5306n420w         0         0         0         0  
     103  hru103                 103       2.00000      53.06417      -4.20286     254.87500       103      sta5306n420w         0         0         0         0  
     104  hru104                 104       1.75000      53.06359      -4.20472     238.42857       104      sta5306n420w         0         0         0         0  
     105  hru105                 105       5.75000      53.06041      -4.20788     174.73913       105      sta5306n420w         0         0         0         0  
     106  hru106                 106       1.00000      53.05811      -4.20871     111.25000       106      sta5306n420w         0         0         0         0  
     107  hru107                 107       4.64844      53.05928      -4.21052     143.47059       107      sta5306n420w         0         0         0         0  
     108  hru108                 108       2.18750      53.05774      -4.21018     107.87500       108      sta5306n420w         0         0         0         0  
     109  hru109                 109       1.91406      53.05602      -4.21137      99.85714       109      sta5306n420w         0         0         0         0  
     110  hru110                 110      48.25000      53.06276      -4.17666     373.72678       110      sta5306n420w         0         0         0         0  
     111  hru111                 111      85.50000      53.05954      -4.18732     241.08469       111      sta5306n420w         0         0         0         0  
     112  hru112                 112      32.81879      53.05674      -4.17484     241.72500       112      sta5306n420w         0         0         0         0  
     113  hru113                 113       7.93121      53.05820      -4.17917     135.68966       113      sta5306n420w         0         0         0         0  
     114  hru114                 114      24.03704      53.06382      -4.16597     354.78409       114      sta5306n420w         0         0         0         0  
     115  hru115                 115      30.16965      53.05848      -4.16352     222.98131       115      sta5306n420w         0         0         0         0  
     116  hru116                 116       4.79331      53.05950      -4.16589     153.35294       116      sta5306n420w         0         0         0         0  
     117  hru117                 117      26.55642      53.06452      -4.15822     298.96078       117      sta5307n413w         0         0         0         0  
     118  hru118                 118      27.06226      53.06202      -4.15321     245.56075       118      sta5307n413w         0         0         0         0  
     119  hru119                 119       5.81712      53.06185      -4.15092     230.00000       119      sta5307n413w         0         0         0         0  
     120  hru120                 120       5.56420      53.06241      -4.15052     233.50000       120      sta5307n413w         0         0         0         0  
     121  hru121                 121      10.75000      53.05904      -4.15883     226.97561       121      sta5307n413w         0         0         0         0  
     122  hru122                 122      35.00000      53.05474      -4.16558     346.24818       122      sta5306n420w         0         0         0         0  
     123  hru123                 123       6.50000      53.06332      -4.24279     307.73077       123      sta5306n428w         0         0         0         0  
     124  hru124                 124      12.86765      53.05979      -4.24067     206.62000       124      sta5306n428w         0         0         0         0  
     125  hru125                 125       4.63235      53.05998      -4.24130     204.50000       125      sta5306n428w         0         0         0         0  
     126  hru126                 126      11.50000      53.06196      -4.24759     271.66667       126      sta5306n428w         0         0         0         0  
     127  hru127                 127       8.50000      53.05959      -4.24924     210.53125       127      sta5306n428w         0         0         0         0  
     128  hru128                 128       0.75000      53.05894      -4.24606     206.66667       128      sta5306n428w         0         0         0         0  
     129  hru129                 129       3.00000      53.05722      -4.24802     157.75000       129      sta5306n428w         0         0         0         0  
     130  hru130                 130       1.25000      53.05628      -4.24741     106.20000       130      sta5306n428w         0         0         0         0  
     131  hru131                 131      15.37324      53.05901      -4.23721     179.55932       131      sta5306n420w         0         0         0         0  
     132  hru132                 132       3.12676      53.05639      -4.23828     102.33333       132      sta5306n428w         0         0         0         0  
     133  hru133                 133       2.00000      53.05858      -4.24343     156.75000       133      sta5306n428w         0         0         0         0  
     134  hru134                 134       9.00000      53.05917      -4.24325     198.30556       134      sta5306n428w         0         0         0         0  
     135  hru135                 135       7.28226      53.05787      -4.24607     170.19048       135      sta5306n428w         0         0         0         0  
     136  hru136                 136       3.46774      53.05563      -4.24589     100.00000       136      sta5306n428w         0         0         0         0  
     137  hru137                 137       1.50000      53.05621      -4.24405     125.00000       137      sta5306n428w         0         0         0         0  
     138  hru138                 138       0.25000      53.05598      -4.24441     111.00000       138      sta5306n428w         0         0         0         0  
     139  hru139                 139       0.75000      53.05555      -4.24340     103.00000       139      sta5306n428w         0         0         0         0  
     140  hru140                 140       0.50000      53.05668      -4.24296     124.50000       140      sta5306n428w         0         0         0         0  
     141  hru141                 141       0.50000      53.05578      -4.24291     107.00000       141      sta5306n428w         0         0         0         0  
     142  hru142                 142       1.00000      53.05581      -4.24161      97.50000       142      sta5306n428w         0         0         0         0  
     143  hru143                 143       3.00000      53.05486      -4.24025      96.00000       143      sta5306n428w         0         0         0         0  
     144  hru144                 144       0.50000      53.05450      -4.23911     120.00000       144      sta5306n428w         0         0         0         0  
     145  hru145                 145       1.25000      53.05366      -4.23877     107.20000       145      sta5306n428w         0         0         0         0  
     146  hru146                 146       4.50000      53.05336      -4.23889     124.38889       146      sta5306n428w         0         0         0         0  
     147  hru147                 147       0.75000      53.05370      -4.23808     117.66667       147      sta5306n428w         0         0         0         0  
     148  hru148                 148       5.95833      53.05357      -4.24435     119.09091       148      sta5306n428w         0         0         0         0  
     149  hru149                 149       3.79167      53.05354      -4.24407      97.00000       149      sta5306n428w         0         0         0         0  
     150  hru150                 150      13.00000      53.05607      -4.26799     175.03846       150      sta5306n428w         0         0         0         0  
     151  hru151                 151       5.75000      53.05421      -4.27163     135.30435       151      sta5306n428w         0         0         0         0  
     152  hru152                 152      11.75000      53.05496      -4.27463     129.76923       152      sta5306n428w         0         0         0         0  
     153  hru153                 153      11.75000      53.05637      -4.27189     152.71795       153      sta5306n428w         0         0         0         0  
     154  hru154                 154      32.66667      53.05228      -4.28313     104.79592       154      sta5306n428w         0         0         0         0  
     155  hru155                 155      14.33333      53.05036      -4.28475      97.51163       155      sta5306n428w         0         0         0         0  
     156  hru156                 156      16.68367      53.04883      -4.27825      98.55000       156      sta5306n428w         0         0         0         0  
     157  hru157                 157       7.22959      53.04864      -4.27826      92.76923       157      sta5306n428w         0         0         0         0  
     158  hru158                 158       3.33673      53.04872      -4.27555     103.75000       158      sta5306n428w         0         0         0         0  
     159  hru159                 159       2.00000      53.05168      -4.27263     109.00000       159      sta5306n428w         0         0         0         0  
     160  hru160                 160       0.75000      53.05109      -4.27276      97.33333       160      sta5306n428w         0         0         0         0  
     161  hru161                 161       0.75000      53.05049      -4.27273      95.00000       161      sta5306n428w         0         0         0         0  
     162  hru162                 162       1.75000      53.04614      -4.28205      98.00000       162      sta5306n428w         0         0         0         0  
     163  hru163                 163       2.00000      53.04620      -4.28297      90.62500       163      sta5306n428w         0         0         0         0  
     164  hru164                 164       0.50000      53.04561      -4.28117      98.00000       164      sta5306n428w         0         0         0         0  
     165  hru165                 165      12.50000      53.04316      -4.28595     102.40000       165      sta5306n428w         0         0         0         0  
     166  hru166                 166       9.00000      53.04435      -4.28641      87.83333       166      sta5306n428w         0         0         0         0  
     167  hru167                 167      10.25000      53.04307      -4.28726     102.80488       167      sta5306n428w         0         0         0         0  
     168  hru168                 168      32.48521      53.04132      -4.27807     116.85833       168      sta5302n427w         0         0         0         0  
     169  hru169                 169      13.26479      53.03959      -4.27674     130.12245       169      sta5302n427w         0         0         0         0  
     170  hru170                 170      15.75000      53.05539      -4.26005     170.40385       170      sta5306n428w         0         0         0         0  
     171  hru171                 171       5.75000      53.05331      -4.25845     122.69565       171      sta5306n428w         0         0         0         0  
     172  hru172                 172       2.00000      53.05241      -4.25784     110.37500       172      sta5306n428w         0         0         0         0  
     173  hru173                 173       2.25000      53.05229      -4.25690     107.66667       173      sta5306n428w         0         0         0         0  
     174  hru174                 174      19.44828      53.05429      -4.26463     155.90278       174      sta5306n428w         0         0         0         0  
     175  hru175                 175       4.05172      53.05113      -4.26614      96.00000       175      sta5306n428w         0         0         0         0  
     176  hru176                 176       1.91279      53.05229      -4.26969     111.00000       176      sta5306n428w         0         0         0         0  
     177  hru177                 177       9.83721      53.05311      -4.26969     127.05556       177      sta5306n428w         0         0         0         0  
     178  hru178                 178       2.39062      53.05170      -4.26176     120.44444       178      sta5306n428w         0         0         0         0  
     179  hru179                 179       2.92188      53.04920      -4.26149     100.54545       179      sta5306n428w         0         0         0         0  
     180  hru180                 180       3.18750      53.05013      -4.26220      96.66667       180      sta5306n428w         0         0         0         0  
     181  hru181                 181       0.29167      53.05119      -4.25983     112.00000       181      sta5306n428w         0         0         0         0  