hyd-sed-lte.cha: written by SWAT+ editor v1.2.3 on 2021-01-24 15:52
name                         order            wd            dp           slp           len          mann             k     erod_fact      cov_fact        hc_cov        eq_slp           d50          clay        carbon        dry_bd      side_slp      bed_load        t_conc     shear_bnk       hc_erod         hc_ht        hc_len  description
hydcha001                    first      12.88442       0.60292       0.02333       0.15000       0.05000       1.00000       0.01000       0.00500       0.00000       0.00100      12.00000      50.00000       0.04000       1.00000       0.50000       0.50000      10.00000       0.75000       0.10000       0.30000       0.30000  
hydcha002                    first      12.85352       0.60196       0.01803       0.38280       0.05000       1.00000       0.01000       0.00500       0.00000       0.00100      12.00000      50.00000       0.04000       1.00000       0.50000       0.50000      10.00000       0.75000       0.10000       0.30000       0.30000  
hydcha003                    first      12.69912       0.59713       0.02081       0.65360       0.05000       1.00000       0.01000       0.00500       0.00000       0.00100      12.00000      50.00000       0.04000       1.00000       0.50000       0.50000      10.00000       0.75000       0.10000       0.30000       0.30000  
hydcha004                    first      12.63498       0.59511       0.01841       1.29850       0.05000       1.00000       0.01000       0.00500       0.00000       0.00100      12.00000      50.00000       0.04000       1.00000       0.50000       0.50000      10.00000       0.75000       0.10000       0.30000       0.30000  
hydcha005                    first      12.42714       0.58857       0.01403       0.32070       0.05000       1.00000       0.01000       0.00500       0.00000       0.00100      12.00000      50.00000       0.04000       1.00000       0.50000       0.50000      10.00000       0.75000       0.10000       0.30000       0.30000  
hydcha006                    first      12.34232       0.58589       0.02320       0.12070       0.05000       1.00000       0.01000       0.00500       0.00000       0.00100      12.00000      50.00000       0.04000       1.00000       0.50000       0.50000      10.00000       0.75000       0.10000       0.30000       0.30000  
hydcha007                    first      12.28686       0.58413       0.01344       0.14140       0.05000       1.00000       0.01000       0.00500       0.00000       0.00100      12.00000      50.00000       0.04000       1.00000       0.50000       0.50000      10.00000       0.75000       0.10000       0.30000       0.30000  
hydcha008                    first      11.61076       0.56250       0.01826       0.31210       0.05000       1.00000       0.01000       0.00500       0.00000       0.00100      12.00000      50.00000       0.04000       1.00000       0.50000       0.50000      10.00000       0.75000       0.10000       0.30000       0.30000  
hydcha009                    first      10.69616       0.53256       0.01691       0.71570       0.05000       1.00000       0.01000       0.00500       0.00000       0.00100      12.00000      50.00000       0.04000       1.00000       0.50000       0.50000      10.00000       0.75000       0.10000       0.30000       0.30000  
hydcha010                    first      10.54906       0.52767       0.00001       0.14140       0.05000       1.00000       0.01000       0.00500       0.00000       0.00100      12.00000      50.00000       0.04000       1.00000       0.50000       0.50000      10.00000       0.75000       0.10000       0.30000       0.30000  
hydcha011                    first      10.45103       0.52439       0.00308       0.84500       0.05000       1.00000       0.01000       0.00500       0.00000       0.00100      12.00000      50.00000       0.04000       1.00000       0.50000       0.50000      10.00000       0.75000       0.10000       0.30000       0.30000  
hydcha012                    first      10.31710       0.51990       0.00331       0.12070       0.05000       1.00000       0.01000       0.00500       0.00000       0.00100      12.00000      50.00000       0.04000       1.00000       0.50000       0.50000      10.00000       0.75000       0.10000       0.30000       0.30000  
hydcha013                    first       9.41786       0.48924       0.01273       0.07070       0.05000       1.00000       0.01000       0.00500       0.00000       0.00100      12.00000      50.00000       0.04000       1.00000       0.50000       0.50000      10.00000       0.75000       0.10000       0.30000       0.30000  
hydcha014                    first       9.39316       0.48838       0.00001       0.10000       0.05000       1.00000       0.01000       0.00500       0.00000       0.00100      12.00000      50.00000       0.04000       1.00000       0.50000       0.50000      10.00000       0.75000       0.10000       0.30000       0.30000  
hydcha015                    first       9.34311       0.48664       0.00001       0.49140       0.05000       1.00000       0.01000       0.00500       0.00000       0.00100      12.00000      50.00000       0.04000       1.00000       0.50000       0.50000      10.00000       0.75000       0.10000       0.30000       0.30000  
hydcha016                    first       9.28821       0.48474       0.00410       0.17070       0.05000       1.00000       0.01000       0.00500       0.00000       0.00100      12.00000      50.00000       0.04000       1.00000       0.50000       0.50000      10.00000       0.75000       0.10000       0.30000       0.30000  
hydcha017                    first       9.24819       0.48334       0.00001       0.15000       0.05000       1.00000       0.01000       0.00500       0.00000       0.00100      12.00000      50.00000       0.04000       1.00000       0.50000       0.50000      10.00000       0.75000       0.10000       0.30000       0.30000  
hydcha018                    first       9.19083       0.48134       0.00001       0.20000       0.05000       1.00000       0.01000       0.00500       0.00000       0.00100      12.00000      50.00000       0.04000       1.00000       0.50000       0.50000      10.00000       0.75000       0.10000       0.30000       0.30000  
hydcha019                    first       8.94244       0.47263       0.00001       0.17070       0.05000       1.00000       0.01000       0.00500       0.00000       0.00100      12.00000      50.00000       0.04000       1.00000       0.50000       0.50000      10.00000       0.75000       0.10000       0.30000       0.30000  
hydcha020                    first       8.77965       0.46688       0.01291       0.44140       0.05000       1.00000       0.01000       0.00500       0.00000       0.00100      12.00000      50.00000       0.04000       1.00000       0.50000       0.50000      10.00000       0.75000       0.10000       0.30000       0.30000  
hydcha021                    first       8.73377       0.46525       0.00001       0.07070       0.05000       1.00000       0.01000       0.00500       0.00000       0.00100      12.00000      50.00000       0.04000       1.00000       0.50000       0.50000      10.00000       0.75000       0.10000       0.30000       0.30000  
hydcha022                    first       8.68610       0.46355       0.00001       0.24140       0.05000       1.00000       0.01000       0.00500       0.00000       0.00100      12.00000      50.00000       0.04000       1.00000       0.50000       0.50000      10.00000       0.75000       0.10000       0.30000       0.30000  
hydcha023                    first       8.42518       0.45422       0.00001       0.56210       0.05000       1.00000       0.01000       0.00500       0.00000       0.00100      12.00000      50.00000       0.04000       1.00000       0.50000       0.50000      10.00000       0.75000       0.10000       0.30000       0.30000  
hydcha024                    first       8.34964       0.45150       0.00001       0.15000       0.05000       1.00000       0.01000       0.00500       0.00000       0.00100      12.00000      50.00000       0.04000       1.00000       0.50000       0.50000      10.00000       0.75000       0.10000       0.30000       0.30000  
hydcha025                    first       7.89044       0.43479       0.00001       0.10000       0.05000       1.00000       0.01000       0.00500       0.00000       0.00100      12.00000      50.00000       0.04000       1.00000       0.50000       0.50000      10.00000       0.75000       0.10000       0.30000       0.30000  
hydcha026                    first       7.71088       0.42817       0.00001       0.12070       0.05000       1.00000       0.01000       0.00500       0.00000       0.00100      12.00000      50.00000       0.04000       1.00000       0.50000       0.50000      10.00000       0.75000       0.10000       0.30000       0.30000  
hydcha027                    first       7.15702       0.40742       0.00001       0.10000       0.05000       1.00000       0.01000       0.00500       0.00000       0.00100      12.00000      50.00000       0.04000       1.00000       0.50000       0.50000      10.00000       0.75000       0.10000       0.30000       0.30000  
hydcha028                    first       7.08267       0.40459       0.00001       0.12070       0.05000       1.00000       0.01000       0.00500       0.00000       0.00100      12.00000      50.00000       0.04000       1.00000       0.50000       0.50000      10.00000       0.75000       0.10000       0.30000       0.30000  
hydcha029                    first       6.96450       0.40008       0.00001       0.28280       0.05000       1.00000       0.01000       0.00500       0.00000       0.00100      12.00000      50.00000       0.04000       1.00000       0.50000       0.50000      10.00000       0.75000       0.10000       0.30000       0.30000  
hydcha030                    first       6.84180       0.39536       0.00001       0.17070       0.05000       1.00000       0.01000       0.00500       0.00000       0.00100      12.00000      50.00000       0.04000       1.00000       0.50000       0.50000      10.00000       0.75000       0.10000       0.30000       0.30000  
hydcha031                    first       6.18425       0.36961       0.00001       0.15000       0.05000       1.00000       0.01000       0.00500       0.00000       0.00100      12.00000      50.00000       0.04000       1.00000       0.50000       0.50000      10.00000       0.75000       0.10000       0.30000       0.30000  
hydcha032                    first       6.13786       0.36776       0.00001       0.30000       0.05000       1.00000       0.01000       0.00500       0.00000       0.00100      12.00000      50.00000       0.04000       1.00000       0.50000       0.50000      10.00000       0.75000       0.10000       0.30000       0.30000  
hydcha033                    first       3.33714       0.24498       0.04857       0.59500       0.05000       1.00000       0.01000       0.00500       0.00000       0.00100      12.00000      50.00000       0.04000       1.00000       0.50000       0.50000      10.00000       0.75000       0.10000       0.30000       0.30000  
hydcha034                    first       3.21868       0.23915       0.04336       0.19140       0.05000       1.00000       0.01000       0.00500       0.00000       0.00100      12.00000      50.00000       0.04000       1.00000       0.50000       0.50000      10.00000       0.75000       0.10000       0.30000       0.30000  
hydcha035                    first       5.82257       0.35505       0.00001       0.30000       0.05000       1.00000       0.01000       0.00500       0.00000       0.00100      12.00000      50.00000       0.04000       1.00000       0.50000       0.50000      10.00000       0.75000       0.10000       0.30000       0.30000  
hydcha036                    first       5.29117       0.33311       0.00001       0.12070       0.05000       1.00000       0.01000       0.00500       0.00000       0.00100      12.00000      50.00000       0.04000       1.00000       0.50000       0.50000      10.00000       0.75000       0.10000       0.30000       0.30000  
hydcha037                    first       3.17005       0.23673       0.00755       0.29140       0.05000       1.00000       0.01000       0.00500       0.00000       0.00100      12.00000      50.00000       0.04000       1.00000       0.50000       0.50000      10.00000       0.75000       0.10000       0.30000       0.30000  
hydcha038                    first       5.23661       0.33081       0.00001       0.10000       0.05000       1.00000       0.01000       0.00500       0.00000       0.00100      12.00000      50.00000       0.04000       1.00000       0.50000       0.50000      10.00000       0.75000       0.10000       0.30000       0.30000  
hydcha039                    first       2.98250       0.22730       0.00802       0.21210       0.05000       1.00000       0.01000       0.00500       0.00000       0.00100      12.00000      50.00000       0.04000       1.00000       0.50000       0.50000      10.00000       0.75000       0.10000       0.30000       0.30000  
hydcha040                    first       4.40216       0.29466       0.00001       0.22070       0.05000       1.00000       0.01000       0.00500       0.00000       0.00100      12.00000      50.00000       0.04000       1.00000       0.50000       0.50000      10.00000       0.75000       0.10000       0.30000       0.30000  
hydcha041                    first       4.31969       0.29097       0.00001       0.27070       0.05000       1.00000       0.01000       0.00500       0.00000       0.00100      12.00000      50.00000       0.04000       1.00000       0.50000       0.50000      10.00000       0.75000       0.10000       0.30000       0.30000  
hydcha042                    first       4.20807       0.28594       0.00001       0.31210       0.05000       1.00000       0.01000       0.00500       0.00000       0.00100      12.00000      50.00000       0.04000       1.00000       0.50000       0.50000      10.00000       0.75000       0.10000       0.30000       0.30000  
hydcha043                    first       3.03312       0.22987       0.05355       1.21570       0.05000       1.00000       0.01000       0.00500       0.00000       0.00100      12.00000      50.00000       0.04000       1.00000       0.50000       0.50000      10.00000       0.75000       0.10000       0.30000       0.30000  
hydcha044                    first       4.06660       0.27949       0.00725       0.22070       0.05000       1.00000       0.01000       0.00500       0.00000       0.00100      12.00000      50.00000       0.04000       1.00000       0.50000       0.50000      10.00000       0.75000       0.10000       0.30000       0.30000  
hydcha045                    first       2.81442       0.21868       0.03869       0.97430       0.05000       1.00000       0.01000       0.00500       0.00000       0.00100      12.00000      50.00000       0.04000       1.00000       0.50000       0.50000      10.00000       0.75000       0.10000       0.30000       0.30000  
hydcha046                    first       2.87949       0.22204       0.01623       0.59140       0.05000       1.00000       0.01000       0.00500       0.00000       0.00100      12.00000      50.00000       0.04000       1.00000       0.50000       0.50000      10.00000       0.75000       0.10000       0.30000       0.30000  
hydcha047                    first       2.60198       0.20753       0.00200       0.05000       0.05000       1.00000       0.01000       0.00500       0.00000       0.00100      12.00000      50.00000       0.04000       1.00000       0.50000       0.50000      10.00000       0.75000       0.10000       0.30000       0.30000  
hydcha048                    first       2.08443       0.17901       0.00001       0.14140       0.05000       1.00000       0.01000       0.00500       0.00000       0.00100      12.00000      50.00000       0.04000       1.00000       0.50000       0.50000      10.00000       0.75000       0.10000       0.30000       0.30000  
hydcha049                    first       2.72137       0.21383       0.00424       0.07070       0.05000       1.00000       0.01000       0.00500       0.00000       0.00100      12.00000      50.00000       0.04000       1.00000       0.50000       0.50000      10.00000       0.75000       0.10000       0.30000       0.30000  
hydcha050                    first       2.51494       0.20288       0.01000       0.15000       0.05000       1.00000       0.01000       0.00500       0.00000       0.00100      12.00000      50.00000       0.04000       1.00000       0.50000       0.50000      10.00000       0.75000       0.10000       0.30000       0.30000  
hydcha051                    first       2.56299       0.20545       0.04890       1.98140       0.05000       1.00000       0.01000       0.00500       0.00000       0.00100      12.00000      50.00000       0.04000       1.00000       0.50000       0.50000      10.00000       0.75000       0.10000       0.30000       0.30000  
hydcha052                    first       2.58375       0.20656       0.00801       0.36210       0.05000       1.00000       0.01000       0.00500       0.00000       0.00100      12.00000      50.00000       0.04000       1.00000       0.50000       0.50000      10.00000       0.75000       0.10000       0.30000       0.30000  
hydcha053                    first       2.28862       0.19052       0.03300       0.20000       0.05000       1.00000       0.01000       0.00500       0.00000       0.00100      12.00000      50.00000       0.04000       1.00000       0.50000       0.50000      10.00000       0.75000       0.10000       0.30000       0.30000  
hydcha054                    first       2.22734       0.18710       0.02122       0.07070       0.05000       1.00000       0.01000       0.00500       0.00000       0.00100      12.00000      50.00000       0.04000       1.00000       0.50000       0.50000      10.00000       0.75000       0.10000       0.30000       0.30000  
hydcha055                    first       2.44359       0.19902       0.00911       0.12070       0.05000       1.00000       0.01000       0.00500       0.00000       0.00100      12.00000      50.00000       0.04000       1.00000       0.50000       0.50000      10.00000       0.75000       0.10000       0.30000       0.30000  
hydcha056                    first       2.00904       0.17467       0.11136       0.58280       0.05000       1.00000       0.01000       0.00500       0.00000       0.00100      12.00000      50.00000       0.04000       1.00000       0.50000       0.50000      10.00000       0.75000       0.10000       0.30000       0.30000  
hydcha057                    first       2.56544       0.20559       0.01870       0.26210       0.05000       1.00000       0.01000       0.00500       0.00000       0.00100      12.00000      50.00000       0.04000       1.00000       0.50000       0.50000      10.00000       0.75000       0.10000       0.30000       0.30000  
hydcha058                    first       1.50469       0.14405       0.00377       0.42430       0.05000       1.00000       0.01000       0.00500       0.00000       0.00100      12.00000      50.00000       0.04000       1.00000       0.50000       0.50000      10.00000       0.75000       0.10000       0.30000       0.30000  
hydcha059                    first       2.26078       0.18897       0.01763       0.39140       0.05000       1.00000       0.01000       0.00500       0.00000       0.00100      12.00000      50.00000       0.04000       1.00000       0.50000       0.50000      10.00000       0.75000       0.10000       0.30000       0.30000  
hydcha060                    first       2.22330       0.18687       0.04699       1.12780       0.05000       1.00000       0.01000       0.00500       0.00000       0.00100      12.00000      50.00000       0.04000       1.00000       0.50000       0.50000      10.00000       0.75000       0.10000       0.30000       0.30000  
hydcha061                    first       2.12492       0.18132       0.03480       0.48280       0.05000       1.00000       0.01000       0.00500       0.00000       0.00100      12.00000      50.00000       0.04000       1.00000       0.50000       0.50000      10.00000       0.75000       0.10000       0.30000       0.30000  
hydcha062                    first       2.27804       0.18993       0.14373       1.04500       0.05000       1.00000       0.01000       0.00500       0.00000       0.00100      12.00000      50.00000       0.04000       1.00000       0.50000       0.50000      10.00000       0.75000       0.10000       0.30000       0.30000  
hydcha063                    first       2.33843       0.19327       0.01540       1.07780       0.05000       1.00000       0.01000       0.00500       0.00000       0.00100      12.00000      50.00000       0.04000       1.00000       0.50000       0.50000      10.00000       0.75000       0.10000       0.30000       0.30000  
hydcha064                    first       2.34753       0.19377       0.06317       0.54140       0.05000       1.00000       0.01000       0.00500       0.00000       0.00100      12.00000      50.00000       0.04000       1.00000       0.50000       0.50000      10.00000       0.75000       0.10000       0.30000       0.30000  
hydcha065                    first       2.00183       0.17425       0.03492       0.31210       0.05000       1.00000       0.01000       0.00500       0.00000       0.00100      12.00000      50.00000       0.04000       1.00000       0.50000       0.50000      10.00000       0.75000       0.10000       0.30000       0.30000  
hydcha066                    first       1.96406       0.17205       0.00001       0.80710       0.05000       1.00000       0.01000       0.00500       0.00000       0.00100      12.00000      50.00000       0.04000       1.00000       0.50000       0.50000      10.00000       0.75000       0.10000       0.30000       0.30000  
hydcha067                    first       1.92135       0.16955       0.00001       0.10000       0.05000       1.00000       0.01000       0.00500       0.00000       0.00100      12.00000      50.00000       0.04000       1.00000       0.50000       0.50000      10.00000       0.75000       0.10000       0.30000       0.30000  
hydcha068                    first       2.70841       0.21315       0.01778       2.03640       0.05000       1.00000       0.01000       0.00500       0.00000       0.00100      12.00000      50.00000       0.04000       1.00000       0.50000       0.50000      10.00000       0.75000       0.10000       0.30000       0.30000  
hydcha069                    first       1.98155       0.17307       0.08393       0.62430       0.05000       1.00000       0.01000       0.00500       0.00000       0.00100      12.00000      50.00000       0.04000       1.00000       0.50000       0.50000      10.00000       0.75000       0.10000       0.30000       0.30000  
hydcha070                    first       1.37892       0.13591       0.09549       0.17070       0.05000       1.00000       0.01000       0.00500       0.00000       0.00100      12.00000      50.00000       0.04000       1.00000       0.50000       0.50000      10.00000       0.75000       0.10000       0.30000       0.30000  
hydcha071                    first       1.65843       0.15370       0.04543       0.35000       0.05000       1.00000       0.01000       0.00500       0.00000       0.00100      12.00000      50.00000       0.04000       1.00000       0.50000       0.50000      10.00000       0.75000       0.10000       0.30000       0.30000  
hydcha072                    first       1.62547       0.15166       0.05688       0.90710       0.05000       1.00000       0.01000       0.00500       0.00000       0.00100      12.00000      50.00000       0.04000       1.00000       0.50000       0.50000      10.00000       0.75000       0.10000       0.30000       0.30000  
hydcha073                    first       1.62382       0.15156       0.10512       0.22070       0.05000       1.00000       0.01000       0.00500       0.00000       0.00100      12.00000      50.00000       0.04000       1.00000       0.50000       0.50000      10.00000       0.75000       0.10000       0.30000       0.30000  
hydcha074                    first       1.27835       0.12922       0.11457       0.07070       0.05000       1.00000       0.01000       0.00500       0.00000       0.00100      12.00000      50.00000       0.04000       1.00000       0.50000       0.50000      10.00000       0.75000       0.10000       0.30000       0.30000  
hydcha075                    first       1.84313       0.16491       0.01180       0.49140       0.05000       1.00000       0.01000       0.00500       0.00000       0.00100      12.00000      50.00000       0.04000       1.00000       0.50000       0.50000      10.00000       0.75000       0.10000       0.30000       0.30000  
hydcha076                    first       1.37336       0.13554       0.02568       0.12070       0.05000       1.00000       0.01000       0.00500       0.00000       0.00100      12.00000      50.00000       0.04000       1.00000       0.50000       0.50000      10.00000       0.75000       0.10000       0.30000       0.30000  
hydcha077                    first       1.36406       0.13493       0.05230       0.56210       0.05000       1.00000       0.01000       0.00500       0.00000       0.00100      12.00000      50.00000       0.04000       1.00000       0.50000       0.50000      10.00000       0.75000       0.10000       0.30000       0.30000  
hydcha078                    first       1.54279       0.14647       0.03104       0.61210       0.05000       1.00000       0.01000       0.00500       0.00000       0.00100      12.00000      50.00000       0.04000       1.00000       0.50000       0.50000      10.00000       0.75000       0.10000       0.30000       0.30000  
hydcha079                    first       1.31308       0.13155       0.05605       0.77430       0.05000       1.00000       0.01000       0.00500       0.00000       0.00100      12.00000      50.00000       0.04000       1.00000       0.50000       0.50000      10.00000       0.75000       0.10000       0.30000       0.30000  
hydcha080                    first       1.18454       0.12281       0.07400       0.15000       0.05000       1.00000       0.01000       0.00500       0.00000       0.00100      12.00000      50.00000       0.04000       1.00000       0.50000       0.50000      10.00000       0.75000       0.10000       0.30000       0.30000  
hydcha081                    first       1.08549       0.11587       0.00001       0.07070       0.05000       1.00000       0.01000       0.00500       0.00000       0.00100      12.00000      50.00000       0.04000       1.00000       0.50000       0.50000      10.00000       0.75000       0.10000       0.30000       0.30000  
hydcha082                    first       1.52382       0.14527       0.15269       0.80360       0.05000       1.00000       0.01000       0.00500       0.00000       0.00100      12.00000      50.00000       0.04000       1.00000       0.50000       0.50000      10.00000       0.75000       0.10000       0.30000       0.30000  
hydcha083                    first       0.98696       0.10875       0.03456       0.34140       0.05000       1.00000       0.01000       0.00500       0.00000       0.00100      12.00000      50.00000       0.04000       1.00000       0.50000       0.50000      10.00000       0.75000       0.10000       0.30000       0.30000  
hydcha084                    first       1.73420       0.15835       0.11483       1.47780       0.05000       1.00000       0.01000       0.00500       0.00000       0.00100      12.00000      50.00000       0.04000       1.00000       0.50000       0.50000      10.00000       0.75000       0.10000       0.30000       0.30000  
hydcha085                    first       1.39183       0.13675       0.00836       0.38280       0.05000       1.00000       0.01000       0.00500       0.00000       0.00100      12.00000      50.00000       0.04000       1.00000       0.50000       0.50000      10.00000       0.75000       0.10000       0.30000       0.30000  
hydcha086                    first       1.23902       0.12655       0.03187       0.19140       0.05000       1.00000       0.01000       0.00500       0.00000       0.00100      12.00000      50.00000       0.04000       1.00000       0.50000       0.50000      10.00000       0.75000       0.10000       0.30000       0.30000  
hydcha087                    first       0.92069       0.10382       0.00001       0.07070       0.05000       1.00000       0.01000       0.00500       0.00000       0.00100      12.00000      50.00000       0.04000       1.00000       0.50000       0.50000      10.00000       0.75000       0.10000       0.30000       0.30000  
hydcha088                    first       1.53935       0.14625       0.12010       0.46210       0.05000       1.00000       0.01000       0.00500       0.00000       0.00100      12.00000      50.00000       0.04000       1.00000       0.50000       0.50000      10.00000       0.75000       0.10000       0.30000       0.30000  
hydcha089                    first       1.32832       0.13256       0.08300       1.72280       0.05000       1.00000       0.01000       0.00500       0.00000       0.00100      12.00000      50.00000       0.04000       1.00000       0.50000       0.50000      10.00000       0.75000       0.10000       0.30000       0.30000  