ls_unit.ele: written by SWAT+ editor v1.2.3 on 2021-01-24 15:52
      id  name                   obj_typ  obj_typ_no      bsn_frac      sub_frac      reg_frac  
       1  hru001                     hru           1     6.7882E-3       0.73618       0.00000  
       2  hru002                     hru           2     8.6889E-4       0.09423       0.00000  
       3  hru003                     hru           3     1.5638E-3       0.16959       0.00000  
       4  hru004                     hru           4     2.1569E-4       0.07143       0.00000  
       5  hru005                     hru           5     5.3923E-5       0.01786       0.00000  
       6  hru006                     hru           6     5.3923E-4       0.17857       0.00000  
       7  hru007                     hru           7     1.4739E-3       0.48810       0.00000  
       8  hru008                     hru           8     7.3695E-4       0.24405       0.00000  
       9  hru009                     hru           9     4.8531E-4       0.12500       0.00000  
      10  hru010                     hru          10     2.1030E-3       0.54167       0.00000  
      11  hru011                     hru          11     2.6961E-4       0.06944       0.00000  
      12  hru012                     hru          12     8.0884E-4       0.20833       0.00000  
      13  hru013                     hru          13     2.1569E-4       0.05556       0.00000  
      14  hru014                     hru          14     6.4707E-4       0.44444       0.00000  
      15  hru015                     hru          15     8.0884E-4       0.55556       0.00000  
      16  hru016                     hru          16     7.5254E-4       0.19118       0.00000  
      17  hru017                     hru          17     3.1838E-3       0.80882       0.00000  
      18  hru018                     hru          18     2.2483E-3       0.69492       0.00000  
      19  hru019                     hru          19     6.0321E-4       0.18644       0.00000  
      20  hru020                     hru          20     3.8386E-4       0.11864       0.00000  
      21  hru021                     hru          21     3.7746E-4       0.21875       0.00000  
      22  hru022                     hru          22     2.1569E-4       0.12500       0.00000  
      23  hru023                     hru          23     5.3923E-4       0.31250       0.00000  
      24  hru024                     hru          24     5.9315E-4       0.34375       0.00000  
      25  hru025                     hru          25     3.5734E-4       0.08955       0.00000  
      26  hru026                     hru          26     3.1565E-3       0.79104       0.00000  
      27  hru027                     hru          27     4.7645E-4       0.11940       0.00000  
      28  hru028                     hru          28     3.9302E-3       0.40268       0.00000  
      29  hru029                     hru          29     5.8298E-3       0.59732       0.00000  
      30  hru030                     hru          30     7.5492E-4       0.28000       0.00000  
      31  hru031                     hru          31     1.4020E-3       0.52000       0.00000  
      32  hru032                     hru          32     1.0785E-4       0.04000       0.00000  
      33  hru033                     hru          33     4.3138E-4       0.16000       0.00000  
      34  hru034                     hru          34     1.5638E-3       0.36250       0.00000  
      35  hru035                     hru          35     9.7061E-4       0.22500       0.00000  
      36  hru036                     hru          36     3.7746E-4       0.08750       0.00000  
      37  hru037                     hru          37     5.3923E-5       0.01250       0.00000  
      38  hru038                     hru          38     5.3923E-5       0.01250       0.00000  
      39  hru039                     hru          39     1.2941E-3       0.30000       0.00000  
      40  hru040                     hru          40     1.1863E-3       1.00000       0.00000  
      41  hru041                     hru          41     2.4093E-3       0.48043       0.00000  
      42  hru042                     hru          42     4.3244E-4       0.08623       0.00000  
      43  hru043                     hru          43     1.2258E-3       0.24444       0.00000  
      44  hru044                     hru          44     6.6864E-4       0.13333       0.00000  
      45  hru045                     hru          45     2.7860E-4       0.05556       0.00000  
      46  hru046                     hru          46     2.8419E-3       0.70270       0.00000  
      47  hru047                     hru          47     1.2023E-3       0.29730       0.00000  
      48  hru048                     hru          48     2.0706E-3       0.60000       0.00000  
      49  hru049                     hru          49     1.3804E-3       0.40000       0.00000  
      50  hru050                     hru          50     2.8523E-3       0.70529       0.00000  
      51  hru051                     hru          51     3.2912E-4       0.08138       0.00000  
      52  hru052                     hru          52     5.7518E-4       0.14222       0.00000  
      53  hru053                     hru          53     2.8759E-4       0.07111       0.00000  
      54  hru054                     hru          54     1.3688E-3       0.42308       0.00000  
      55  hru055                     hru          55     1.1199E-3       0.34615       0.00000  
      56  hru056                     hru          56     7.4662E-4       0.23077       0.00000  
      57  hru057                     hru          57     1.0385E-3       0.19453       0.00000  
      58  hru058                     hru          58     2.0120E-3       0.37690       0.00000  
      59  hru059                     hru          59     1.1766E-3       0.22041       0.00000  
      60  hru060                     hru          60     1.1113E-3       0.20816       0.00000  
      61  hru061                     hru          61     2.8040E-3       0.80000       0.00000  
      62  hru062                     hru          62     7.0100E-4       0.20000       0.00000  
      63  hru063                     hru          63     3.5589E-3       0.66667       0.00000  
      64  hru064                     hru          64     6.3142E-4       0.11828       0.00000  
      65  hru065                     hru          65     1.1480E-3       0.21505       0.00000  
      66  hru066                     hru          66     1.0245E-3       0.38000       0.00000  
      67  hru067                     hru          67     1.6177E-4       0.06000       0.00000  
      68  hru068                     hru          68     3.2354E-4       0.12000       0.00000  
      69  hru069                     hru          69     8.4736E-4       0.31429       0.00000  
      70  hru070                     hru          70     3.3894E-4       0.12571       0.00000  
      71  hru071                     hru          71     1.8873E-3       0.81395       0.00000  
      72  hru072                     hru          72     2.1569E-4       0.09302       0.00000  
      73  hru073                     hru          73     1.6177E-4       0.06977       0.00000  
      74  hru074                     hru          74     5.3923E-5       0.02326       0.00000  
      75  hru075                     hru          75     5.3923E-4       0.21739       0.00000  
      76  hru076                     hru          76     6.4707E-4       0.26087       0.00000  
      77  hru077                     hru          77     7.5492E-4       0.30435       0.00000  
      78  hru078                     hru          78     5.3923E-4       0.21739       0.00000  
      79  hru079                     hru          79     1.7255E-3       0.35955       0.00000  
      80  hru080                     hru          80     2.6961E-4       0.05618       0.00000  
      81  hru081                     hru          81     4.3138E-4       0.08989       0.00000  
      82  hru082                     hru          82     2.8245E-4       0.05886       0.00000  
      83  hru083                     hru          83     2.0902E-3       0.43553       0.00000  
      84  hru084                     hru          84     3.2354E-4       0.28571       0.00000  
      85  hru085                     hru          85     3.2354E-4       0.28571       0.00000  
      86  hru086                     hru          86     4.8531E-4       0.42857       0.00000  
      87  hru087                     hru          87     4.8531E-4       0.45000       0.00000  
      88  hru088                     hru          88     4.8531E-4       0.45000       0.00000  
      89  hru089                     hru          89     1.0785E-4       0.10000       0.00000  
      90  hru090                     hru          90     2.5493E-3       0.58367       0.00000  
      91  hru091                     hru          91     2.8970E-4       0.06633       0.00000  
      92  hru092                     hru          92     1.0919E-3       0.25000       0.00000  
      93  hru093                     hru          93     4.3678E-4       0.10000       0.00000  
      94  hru094                     hru          94     2.0159E-3       0.46154       0.00000  
      95  hru095                     hru          95     5.0397E-4       0.11538       0.00000  
      96  hru096                     hru          96     1.8479E-3       0.42308       0.00000  
      97  hru097                     hru          97     6.9479E-3       0.49941       0.00000  
      98  hru098                     hru          98     1.1862E-3       0.08527       0.00000  
      99  hru099                     hru          99     7.2225E-4       0.05192       0.00000  
     100  hru100                     hru         100     5.0558E-3       0.36341       0.00000  
     101  hru101                     hru         101     1.4459E-2       0.60942       0.00000  
     102  hru102                     hru         102     9.2670E-3       0.39058       0.00000  
     103  hru103                     hru         103     4.3138E-4       0.19048       0.00000  
     104  hru104                     hru         104     3.7746E-4       0.16667       0.00000  
     105  hru105                     hru         105     1.2402E-3       0.54762       0.00000  
     106  hru106                     hru         106     2.1569E-4       0.09524       0.00000  
     107  hru107                     hru         107     1.0026E-3       0.53125       0.00000  
     108  hru108                     hru         108     4.7183E-4       0.25000       0.00000  
     109  hru109                     hru         109     4.1285E-4       0.21875       0.00000  
     110  hru110                     hru         110     1.0407E-2       0.27650       0.00000  
     111  hru111                     hru         111     1.8442E-2       0.48997       0.00000  
     112  hru112                     hru         112     7.0787E-3       0.18807       0.00000  
     113  hru113                     hru         113     1.7107E-3       0.04545       0.00000  
     114  hru114                     hru         114     5.1846E-3       0.40741       0.00000  
     115  hru115                     hru         115     6.5073E-3       0.51135       0.00000  
     116  hru116                     hru         116     1.0339E-3       0.08124       0.00000  
     117  hru117                     hru         117     5.7280E-3       0.40856       0.00000  
     118  hru118                     hru         118     5.8371E-3       0.41634       0.00000  
     119  hru119                     hru         119     1.2547E-3       0.08949       0.00000  
     120  hru120                     hru         120     1.2002E-3       0.08560       0.00000  
     121  hru121                     hru         121     2.3187E-3       1.00000       0.00000  
     122  hru122                     hru         122     7.5492E-3       1.00000       0.00000  
     123  hru123                     hru         123     1.4020E-3       0.27083       0.00000  
     124  hru124                     hru         124     2.7754E-3       0.53615       0.00000  
     125  hru125                     hru         125     9.9916E-4       0.19301       0.00000  
     126  hru126                     hru         126     2.4805E-3       0.46000       0.00000  
     127  hru127                     hru         127     1.8334E-3       0.34000       0.00000  
     128  hru128                     hru         128     1.6177E-4       0.03000       0.00000  
     129  hru129                     hru         129     6.4707E-4       0.12000       0.00000  
     130  hru130                     hru         130     2.6961E-4       0.05000       0.00000  
     131  hru131                     hru         131     3.3159E-3       0.83099       0.00000  
     132  hru132                     hru         132     6.7442E-4       0.16901       0.00000  
     133  hru133                     hru         133     4.3138E-4       0.18182       0.00000  
     134  hru134                     hru         134     1.9412E-3       0.81818       0.00000  
     135  hru135                     hru         135     1.5707E-3       0.67742       0.00000  
     136  hru136                     hru         136     7.4796E-4       0.32258       0.00000  
     137  hru137                     hru         137     3.2354E-4       0.60000       0.00000  
     138  hru138                     hru         138     5.3923E-5       0.10000       0.00000  
     139  hru139                     hru         139     1.6177E-4       0.30000       0.00000  
     140  hru140                     hru         140     1.0785E-4       0.25000       0.00000  
     141  hru141                     hru         141     1.0785E-4       0.25000       0.00000  
     142  hru142                     hru         142     2.1569E-4       0.50000       0.00000  
     143  hru143                     hru         143     6.4707E-4       0.30000       0.00000  
     144  hru144                     hru         144     1.0785E-4       0.05000       0.00000  
     145  hru145                     hru         145     2.6961E-4       0.12500       0.00000  
     146  hru146                     hru         146     9.7061E-4       0.45000       0.00000  
     147  hru147                     hru         147     1.6177E-4       0.07500       0.00000  
     148  hru148                     hru         148     1.2852E-3       0.61111       0.00000  
     149  hru149                     hru         149     8.1783E-4       0.38889       0.00000  
     150  hru150                     hru         150     2.8040E-3       0.69333       0.00000  
     151  hru151                     hru         151     1.2402E-3       0.30667       0.00000  
     152  hru152                     hru         152     2.5344E-3       0.50000       0.00000  
     153  hru153                     hru         153     2.5344E-3       0.50000       0.00000  
     154  hru154                     hru         154     7.0459E-3       0.69504       0.00000  
     155  hru155                     hru         155     3.0916E-3       0.30496       0.00000  
     156  hru156                     hru         156     3.5985E-3       0.61224       0.00000  
     157  hru157                     hru         157     1.5594E-3       0.26531       0.00000  
     158  hru158                     hru         158     7.1971E-4       0.12245       0.00000  
     159  hru159                     hru         159     4.3138E-4       0.57143       0.00000  
     160  hru160                     hru         160     1.6177E-4       0.21429       0.00000  
     161  hru161                     hru         161     1.6177E-4       0.21429       0.00000  
     162  hru162                     hru         162     3.7746E-4       0.41176       0.00000  
     163  hru163                     hru         163     4.3138E-4       0.47059       0.00000  
     164  hru164                     hru         164     1.0785E-4       0.11765       0.00000  
     165  hru165                     hru         165     2.6961E-3       0.39370       0.00000  
     166  hru166                     hru         166     1.9412E-3       0.28346       0.00000  
     167  hru167                     hru         167     2.2108E-3       0.32283       0.00000  
     168  hru168                     hru         168     7.0068E-3       0.71006       0.00000  
     169  hru169                     hru         169     2.8611E-3       0.28994       0.00000  
     170  hru170                     hru         170     3.3971E-3       0.61165       0.00000  
     171  hru171                     hru         171     1.2402E-3       0.22330       0.00000  
     172  hru172                     hru         172     4.3138E-4       0.07767       0.00000  
     173  hru173                     hru         173     4.8531E-4       0.08738       0.00000  
     174  hru174                     hru         174     4.1948E-3       0.82759       0.00000  
     175  hru175                     hru         175     8.7392E-4       0.17241       0.00000  
     176  hru176                     hru         176     4.1257E-4       0.16279       0.00000  
     177  hru177                     hru         177     2.1218E-3       0.83721       0.00000  
     178  hru178                     hru         178     5.1564E-4       0.28125       0.00000  
     179  hru179                     hru         179     6.3022E-4       0.34375       0.00000  
     180  hru180                     hru         180     6.8752E-4       0.37500       0.00000  
     181  hru181                     hru         181     6.2910E-5       0.16667       0.00000  
     182  hru182                     hru         182     2.5164E-4       0.66667       0.00000  
     183  hru183                     hru         183     6.2910E-5       0.16667       0.00000  
     184  hru184                     hru         184     5.3923E-5       1.00000       0.00000  
     185  hru185                     hru         185     1.6177E-4       1.00000       0.00000  
     186  hru186                     hru         186     1.6177E-3       0.55556       0.00000  
     187  hru187                     hru         187     1.2941E-3       0.44444       0.00000  
     188  hru188                     hru         188     5.3923E-4       0.19231       0.00000  
     189  hru189                     hru         189     1.8334E-3       0.65385       0.00000  
     190  hru190                     hru         190     4.3138E-4       0.15385       0.00000  
     191  hru191                     hru         191     8.0884E-4       0.46875       0.00000  
     192  hru192                     hru         192     6.4707E-4       0.37500       0.00000  
     193  hru193                     hru         193     2.6961E-4       0.15625       0.00000  
     194  hru194                     hru         194     4.3138E-4       0.18605       0.00000  
     195  hru195                     hru         195     8.6277E-4       0.37209       0.00000  
     196  hru196                     hru         196     1.0245E-3       0.44186       0.00000  
     197  hru197                     hru         197     3.5589E-3       0.48529       0.00000  
     198  hru198                     hru         198     5.9315E-4       0.08088       0.00000  
     199  hru199                     hru         199     3.1815E-3       0.43382       0.00000  
     200  hru200                     hru         200     7.6571E-3       1.00000       0.00000  
     201  hru201                     hru         201     6.0091E-3       0.71895       0.00000  
     202  hru202                     hru         202     2.3490E-3       0.28105       0.00000  
     203  hru203                     hru         203     2.9118E-3       1.00000       0.00000  
     204  hru204                     hru         204     2.2108E-3       1.00000       0.00000  
     205  hru205                     hru         205     3.0976E-3       0.87037       0.00000  
     206  hru206                     hru         206     4.6134E-4       0.12963       0.00000  
     207  hru207                     hru         207     5.2844E-3       1.00000       0.00000  
     208  hru208                     hru         208     5.4462E-3       0.32686       0.00000  
     209  hru209                     hru         209     9.3956E-3       0.56389       0.00000  
     210  hru210                     hru         210     1.8204E-3       0.10925       0.00000  
     211  hru211                     hru         211     6.7404E-3       0.77640       0.00000  
     212  hru212                     hru         212     1.9412E-3       0.22360       0.00000  
     213  hru213                     hru         213     2.1569E-3       1.00000       0.00000  
     214  hru214                     hru         214     2.4133E-3       0.68854       0.00000  
     215  hru215                     hru         215     3.3674E-4       0.09608       0.00000  
     216  hru216                     hru         216     6.4707E-4       0.18462       0.00000  
     217  hru217                     hru         217     1.0785E-4       0.03077       0.00000  
     218  hru218                     hru         218     6.4707E-4       0.24000       0.00000  
     219  hru219                     hru         219     1.5638E-3       0.58000       0.00000  
     220  hru220                     hru         220     4.8531E-4       0.18000       0.00000  
     221  hru221                     hru         221     1.2941E-3       1.00000       0.00000  
     222  hru222                     hru         222     6.7943E-3       1.00000       0.00000  
     223  hru223                     hru         223     2.3726E-3       1.00000       0.00000  
     224  hru224                     hru         224     2.6422E-3       1.00000       0.00000  
     225  hru225                     hru         225     2.6961E-4       0.17857       0.00000  
     226  hru226                     hru         226     2.1569E-4       0.14286       0.00000  
     227  hru227                     hru         227     1.0245E-3       0.67857       0.00000  
     228  hru228                     hru         228     4.5675E-3       0.22350       0.00000  
     229  hru229                     hru         229     1.5869E-2       0.77650       0.00000  
     230  hru230                     hru         230     2.1569E-3       1.00000       0.00000  
     231  hru231                     hru         231     3.4842E-4       0.46154       0.00000  
     232  hru232                     hru         232     4.0650E-4       0.53846       0.00000  
     233  hru233                     hru         233     1.0785E-4       0.16667       0.00000  
     234  hru234                     hru         234     2.1569E-4       0.33333       0.00000  
     235  hru235                     hru         235     3.2354E-4       0.50000       0.00000  
     236  hru236                     hru         236     3.8973E-3       0.42515       0.00000  
     237  hru237                     hru         237     1.4821E-3       0.16168       0.00000  
     238  hru238                     hru         238     2.1408E-3       0.23353       0.00000  
     239  hru239                     hru         239     1.6467E-3       0.17964       0.00000  
     240  hru240                     hru         240     1.2402E-3       0.14465       0.00000  
     241  hru241                     hru         241     2.3187E-3       0.27044       0.00000  
     242  hru242                     hru         242     1.5638E-3       0.18239       0.00000  
     243  hru243                     hru         243     4.0262E-4       0.04696       0.00000  
     244  hru244                     hru         244     3.0484E-3       0.35556       0.00000  
     245  hru245                     hru         245     4.8531E-4       0.40909       0.00000  
     246  hru246                     hru         246     7.0100E-4       0.59091       0.00000  
     247  hru247                     hru         247     9.4001E-4       0.10135       0.00000  
     248  hru248                     hru         248     1.6293E-3       0.17568       0.00000  
     249  hru249                     hru         249     3.5094E-3       0.37838       0.00000  
     250  hru250                     hru         250     1.7259E-3       0.18608       0.00000  
     251  hru251                     hru         251     1.4702E-3       0.15851       0.00000  
     252  hru252                     hru         252     2.0538E-3       0.45343       0.00000  
     253  hru253                     hru         253     1.7208E-3       0.37990       0.00000  
     254  hru254                     hru         254     7.5492E-4       0.16667       0.00000  
     255  hru255                     hru         255     2.9910E-4       0.07812       0.00000  
     256  hru256                     hru         256     1.2562E-3       0.32812       0.00000  
     257  hru257                     hru         257     1.2562E-3       0.32812       0.00000  
     258  hru258                     hru         258     1.0170E-3       0.26562       0.00000  
     259  hru259                     hru         259     2.9136E-3       0.80645       0.00000  
     260  hru260                     hru         260     6.9926E-4       0.19355       0.00000  
     261  hru261                     hru         261     3.6976E-4       0.85714       0.00000  
     262  hru262                     hru         262     6.1626E-5       0.14286       0.00000  
     263  hru263                     hru         263     3.2354E-4       0.10714       0.00000  
     264  hru264                     hru         264     4.8531E-4       0.16071       0.00000  
     265  hru265                     hru         265     1.0785E-4       0.03571       0.00000  
     266  hru266                     hru         266     1.0785E-3       0.35714       0.00000  
     267  hru267                     hru         267     1.0245E-3       0.33929       0.00000  
     268  hru268                     hru         268     3.3388E-3       0.45865       0.00000  
     269  hru269                     hru         269     3.9408E-3       0.54135       0.00000  
     270  hru270                     hru         270     3.1275E-3       1.00000       0.00000  
     271  hru271                     hru         271     3.2354E-4       1.00000       0.00000  
     272  hru272                     hru         272     8.2958E-4       0.38462       0.00000  
     273  hru273                     hru         273     1.1061E-4       0.05128       0.00000  
     274  hru274                     hru         274     1.6592E-4       0.07692       0.00000  
     275  hru275                     hru         275     3.3183E-4       0.15385       0.00000  
     276  hru276                     hru         276     1.6592E-4       0.07692       0.00000  
     277  hru277                     hru         277     4.4244E-4       0.20513       0.00000  
     278  hru278                     hru         278     1.1061E-4       0.05128       0.00000  
     279  hru279                     hru         279     1.6716E-3       1.00000       0.00000  
     280  hru280                     hru         280     5.3923E-4       0.21739       0.00000  
     281  hru281                     hru         281     1.4421E-3       0.58137       0.00000  
     282  hru282                     hru         282     2.2185E-4       0.08944       0.00000  
     283  hru283                     hru         283     2.7732E-4       0.11180       0.00000  
     284  hru284                     hru         284     7.8938E-3       0.66845       0.00000  
     285  hru285                     hru         285     3.9153E-3       0.33155       0.00000  
     286  hru286                     hru         286     1.8040E-3       0.72727       0.00000  
     287  hru287                     hru         287     6.7649E-4       0.27273       0.00000  
     288  hru288                     hru         288     7.8008E-4       0.30139       0.00000  
     289  hru289                     hru         289     8.9153E-4       0.34444       0.00000  
     290  hru290                     hru         290     9.1669E-4       0.35417       0.00000  
     291  hru291                     hru         291     2.6961E-4       0.62500       0.00000  
     292  hru292                     hru         292     1.6177E-4       0.37500       0.00000  
     293  hru293                     hru         293     2.1569E-4       0.09524       0.00000  
     294  hru294                     hru         294     7.5492E-4       0.33333       0.00000  
     295  hru295                     hru         295     5.9315E-4       0.26190       0.00000  
     296  hru296                     hru         296     7.0100E-4       0.30952       0.00000  
     297  hru297                     hru         297     1.0785E-4       1.00000       0.00000  
     298  hru298                     hru         298     4.7219E-4       0.16216       0.00000  
     299  hru299                     hru         299     2.4396E-3       0.83784       0.00000  
     300  hru300                     hru         300     5.2170E-3       0.56250       0.00000  
     301  hru301                     hru         301     4.0577E-3       0.43750       0.00000  
     302  hru302                     hru         302     2.5883E-3       1.00000       0.00000  
     303  hru303                     hru         303     2.6961E-4       0.71429       0.00000  
     304  hru304                     hru         304     5.3923E-5       0.14286       0.00000  