object.cnt: written by SWAT+ editor v1.2.3 on 2021-01-24 15:52
name                   ls_area      tot_area       obj       hru      lhru       rtu       mfl       aqu       cha       res       rec      exco       dlr       can       pmp       out      lcha     aqu2d       hrd       wro  
LLYFNI2             4636.25000    4636.25000      1413       672         0       240         0        21         0         0       240         0         0         0         0         0       240         0         0         0  
