pcp.cli: Precipitation file names - file written by SWAT+ editor 2021-01-24 15:51:15.523336
filename
p4552.pcp
p4553.pcp
p4596.pcp
p4597.pcp
p4598.pcp
p4599.pcp
p4646.pcp
p4647.pcp
p4648.pcp
p4649.pcp
p4650.pcp
p4651.pcp
p4695.pcp
p4696.pcp
p4697.pcp
p4698.pcp
p4699.pcp
p4700.pcp
p4701.pcp
p4702.pcp
p4703.pcp
p4704.pcp
p4705.pcp
p4706.pcp
p4707.pcp
p4708.pcp
p4753.pcp
p4754.pcp
p4755.pcp
p4756.pcp
p4757.pcp
p4758.pcp
p4759.pcp
p4760.pcp
p4761.pcp
p4762.pcp
p4763.pcp
p4764.pcp
p4765.pcp
p4766.pcp
p4767.pcp
p4768.pcp
p4769.pcp
p4770.pcp
p4816.pcp
p4817.pcp
p4818.pcp
p4819.pcp
p4820.pcp
p4821.pcp
p4822.pcp
p4823.pcp
p4824.pcp
p4825.pcp
p4826.pcp
p4827.pcp
p4828.pcp
p4829.pcp
p4830.pcp
p4831.pcp
p4832.pcp
p4833.pcp
p4834.pcp
p4835.pcp
p4880.pcp
p4881.pcp
p4882.pcp
p4883.pcp
p4884.pcp
p4885.pcp
p4886.pcp
p4887.pcp
p4888.pcp
p4889.pcp
p4890.pcp
p4891.pcp
p4892.pcp
p4893.pcp
p4894.pcp
p4895.pcp
p4896.pcp
p4897.pcp
p4898.pcp
p4899.pcp
p4943.pcp
p4944.pcp
p4945.pcp
p4946.pcp
p4947.pcp
p4948.pcp
p4949.pcp
p4950.pcp
p4951.pcp
p4952.pcp
p4953.pcp
p4954.pcp
p4955.pcp
p4956.pcp
p4957.pcp
p4958.pcp
p4959.pcp
p4960.pcp
p5005.pcp
p5006.pcp
p5007.pcp
p5008.pcp
p5009.pcp
p5010.pcp
p5011.pcp
p5012.pcp
p5013.pcp
p5014.pcp
p5015.pcp
p5016.pcp
p5017.pcp
p5018.pcp
p5019.pcp
p5020.pcp
p5021.pcp
p5022.pcp
p5023.pcp
p5066.pcp
p5067.pcp
p5068.pcp
p5069.pcp
p5070.pcp
p5071.pcp
p5072.pcp
p5073.pcp
p5074.pcp
p5075.pcp
p5076.pcp
p5077.pcp
p5078.pcp
p5079.pcp
p5080.pcp
p5081.pcp
p5082.pcp
p5083.pcp
p5084.pcp
p5085.pcp
p5086.pcp
p5127.pcp
p5128.pcp
p5129.pcp
p5130.pcp
p5131.pcp
p5132.pcp
p5133.pcp
p5134.pcp
p5135.pcp
p5136.pcp
p5137.pcp
p5138.pcp
p5139.pcp
p5140.pcp
p5141.pcp
p5142.pcp
p5143.pcp
p5144.pcp
p5145.pcp
p5146.pcp
p5147.pcp
p5148.pcp
p5149.pcp
p5196.pcp
p5197.pcp
p5198.pcp
p5199.pcp
p5200.pcp
p5201.pcp
p5202.pcp
p5203.pcp
p5204.pcp
p5205.pcp
p5206.pcp
p5207.pcp
p5208.pcp
p5209.pcp
p5210.pcp
p5211.pcp
p5212.pcp
p5213.pcp
p5214.pcp
p5215.pcp
p5216.pcp
p5218.pcp
p5219.pcp
p5220.pcp
p5272.pcp
p5273.pcp
p5274.pcp
p5275.pcp
p5276.pcp
p5277.pcp
p5278.pcp
p5279.pcp
p5280.pcp
p5281.pcp
p5282.pcp
p5283.pcp
p5284.pcp
p5285.pcp
p5286.pcp
p5287.pcp
p5288.pcp
p5289.pcp
p5348.pcp
p5349.pcp
p5350.pcp
p5351.pcp
p5352.pcp
p5353.pcp
p5354.pcp
p5355.pcp
p5356.pcp
p5357.pcp
p5358.pcp
p5359.pcp
p5425.pcp
p5426.pcp
p5427.pcp
p5428.pcp
p5429.pcp
p5430.pcp
p5431.pcp
p5503.pcp
p5504.pcp
p5505.pcp
p5506.pcp
p5507.pcp
p5508.pcp
p5581.pcp
p5582.pcp
p5583.pcp
p5584.pcp
p5585.pcp
p5586.pcp
p5659.pcp
p5660.pcp
p5661.pcp
p5738.pcp
p5739.pcp
p5740.pcp
p5741.pcp
p5818.pcp
p5819.pcp
