recall.con: written by SWAT+ editor v1.2.3 on 2021-01-24 15:52
      id  name                gis_id          area           lat           lon          elev       rec               wst       cst      ovfl      rule   out_tot       obj_typ    obj_id       hyd_typ          frac  
       1  pt002                    2       0.00001      53.04585      -4.32669      21.00000         1      sta5302n435w         0         0         0         1           sdc         1           tot       1.00000  
       2  pt004                    4       0.00001      53.04415      -4.32212      27.90000         2      sta5302n435w         0         0         0         1           sdc         2           tot       1.00000  
       3  pt006                    6       0.00001      53.04157      -4.31602      41.50000         3      sta5302n435w         0         0         0         1           sdc         3           tot       1.00000  
       4  pt008                    8       0.00001      53.04543      -4.30205      65.40000         4      sta5306n428w         0         0         0         1           sdc         4           tot       1.00000  
       5  pt010                   10       0.00001      53.04507      -4.29755      69.80000         5      sta5306n428w         0         0         0         1           sdc         5           tot       1.00000  
       6  pt012                   12       0.00001      53.04419      -4.29676      72.70000         6      sta5306n428w         0         0         0         1           sdc         6           tot       1.00000  
       7  pt014                   14       0.00001      53.04332      -4.29522      74.60000         7      sta5306n428w         0         0         0         1           sdc         7           tot       1.00000  
       8  pt016                   16       0.00001      53.04204      -4.29143      80.30000         8      sta5306n428w         0         0         0         1           sdc         8           tot       1.00000  
       9  pt018                   18       0.00001      53.04533      -4.28414      89.00000         9      sta5306n428w         0         0         0         1           sdc         9           tot       1.00000  
      10  pt020                   20       0.00001      53.04626      -4.28270      89.10000        10      sta5306n428w         0         0         0         1           sdc        10           tot       1.00000  
      11  pt022                   22       0.00001      53.05047      -4.27397      94.30000        11      sta5306n428w         0         0         0         1           sdc        11           tot       1.00000  
      12  pt026                   26       0.00001      53.05095      -4.27250      94.60000        12      sta5306n428w         0         0         0         1           sdc        12           tot       1.00000  
      13  pt028                   28       0.00001      53.05051      -4.27173      96.30000        13      sta5306n428w         0         0         0         1           sdc        13           tot       1.00000  
      14  pt030                   30       0.00001      53.05054      -4.27024      96.20000        14      sta5306n428w         0         0         0         1           sdc        14           tot       1.00000  
      15  pt032                   32       0.00001      53.05067      -4.26353      95.30000        15      sta5306n428w         0         0         0         1           sdc        15           tot       1.00000  
      16  pt034                   34       0.00001      53.05026      -4.26127      97.00000        16      sta5306n428w         0         0         0         1           sdc        16           tot       1.00000  
      17  pt036                   36       0.00001      53.05031      -4.25904      96.80000        17      sta5306n428w         0         0         0         1           sdc        17           tot       1.00000  
      18  pt038                   38       0.00001      53.05036      -4.25606      96.50000        18      sta5306n428w         0         0         0         1           sdc        18           tot       1.00000  
      19  pt040                   40       0.00001      53.05085      -4.25384      96.30000        19      sta5306n428w         0         0         0         1           sdc        19           tot       1.00000  
      20  pt042                   42       0.00001      53.04961      -4.24856     102.70000        20      sta5306n428w         0         0         0         1           sdc        20           tot       1.00000  
      21  pt044                   44       0.00001      53.05007      -4.24784     102.60000        21      sta5306n428w         0         0         0         1           sdc        21           tot       1.00000  
      22  pt046                   46       0.00001      53.05189      -4.24644      98.50000        22      sta5306n428w         0         0         0         1           sdc        22           tot       1.00000  
      23  pt048                   48       0.00001      53.05069      -4.23891     100.70000        23      sta5306n428w         0         0         0         1           sdc        23           tot       1.00000  
      24  pt050                   50       0.00001      53.05073      -4.23668      97.90000        24      sta5306n420w         0         0         0         1           sdc        24           tot       1.00000  
      25  pt052                   52       0.00001      53.05076      -4.23519      97.00000        25      sta5306n420w         0         0         0         1           sdc        25           tot       1.00000  
      26  pt054                   54       0.00001      53.05123      -4.23372      97.50000        26      sta5306n420w         0         0         0         1           sdc        26           tot       1.00000  
      27  pt056                   56       0.00001      53.05126      -4.23223      96.20000        27      sta5306n420w         0         0         0         1           sdc        27           tot       1.00000  
      28  pt058                   58       0.00001      53.05174      -4.23076      96.50000        28      sta5306n420w         0         0         0         1           sdc        28           tot       1.00000  
      29  pt060                   60       0.00001      53.05359      -4.22787      96.50000        29      sta5306n420w         0         0         0         1           sdc        29           tot       1.00000  
      30  pt062                   62       0.00001      53.05408      -4.22566      98.30000        30      sta5306n420w         0         0         0         1           sdc        30           tot       1.00000  
      31  pt064                   64       0.00001      53.05412      -4.22342      97.10000        31      sta5306n420w         0         0         0         1           sdc        31           tot       1.00000  
      32  pt066                   66       0.00001      53.05421      -4.21895      97.10000        32      sta5306n420w         0         0         0         1           sdc        32           tot       1.00000  
      33  pt068                   68       0.00001      53.03810      -4.28600     109.20000        33      sta5302n427w         0         0         0         1           sdc        33           tot       1.00000  
      34  pt070                   70       0.00001      53.03725      -4.28371     117.50000        34      sta5302n427w         0         0         0         1           sdc        34           tot       1.00000  
      35  pt074                   74       0.00001      53.05429      -4.21448      97.10000        35      sta5306n420w         0         0         0         1           sdc        35           tot       1.00000  
      36  pt078                   78       0.00001      53.05387      -4.21297      97.10000        36      sta5306n420w         0         0         0         1           sdc        36           tot       1.00000  
      37  pt080                   80       0.00001      53.04873      -4.27089      97.60000        37      sta5306n428w         0         0         0         1           sdc        37           tot       1.00000  
      38  pt082                   82       0.00001      53.05390      -4.21148      97.10000        38      sta5306n420w         0         0         0         1           sdc        38           tot       1.00000  
      39  pt084                   84       0.00001      53.04734      -4.27306      99.30000        39      sta5306n428w         0         0         0         1           sdc        39           tot       1.00000  
      40  pt088                   88       0.00001      53.05350      -4.20847      98.90000        40      sta5306n420w         0         0         0         1           sdc        40           tot       1.00000  
      41  pt090                   90       0.00001      53.05402      -4.20477     100.70000        41      sta5306n420w         0         0         0         1           sdc        41           tot       1.00000  
      42  pt092                   92       0.00001      53.05544      -4.20111     102.60000        42      sta5306n420w         0         0         0         1           sdc        42           tot       1.00000  
      43  pt094                   94       0.00001      53.03395      -4.26788     182.60001        43      sta5302n427w         0         0         0         1           sdc        43           tot       1.00000  
      44  pt096                   96       0.00001      53.05594      -4.19815     104.30000        44      sta5306n420w         0         0         0         1           sdc        44           tot       1.00000  
      45  pt098                   98       0.00001      53.02869      -4.26089     220.30000        45      sta5302n427w         0         0         0         1           sdc        45           tot       1.00000  
      46  pt100                  100       0.00001      53.03838      -4.29496      84.10000        46      sta5302n427w         0         0         0         1           sdc        46           tot       1.00000  
      47  pt102                  102       0.00001      53.02871      -4.26015     220.39999        47      sta5302n427w         0         0         0         1           sdc        47           tot       1.00000  
      48  pt104                  104       0.00001      53.05036      -4.23218      98.40000        48      sta5306n420w         0         0         0         1           sdc        48           tot       1.00000  
      49  pt106                  106       0.00001      53.03792      -4.29568      84.50000        49      sta5302n427w         0         0         0         1           sdc        49           tot       1.00000  
      50  pt108                  108       0.00001      53.02875      -4.25791     221.80000        50      sta5302n427w         0         0         0         1           sdc        50           tot       1.00000  
      51  pt110                  110       0.00001      53.03405      -4.26266     196.20000        51      sta5302n427w         0         0         0         1           sdc        51           tot       1.00000  
      52  pt112                  112       0.00001      53.03561      -4.29854      87.30000        52      sta5302n427w         0         0         0         1           sdc        52           tot       1.00000  
      53  pt114                  114       0.00001      53.03411      -4.25968     202.80000        53      sta5302n427w         0         0         0         1           sdc        53           tot       1.00000  
      54  pt116                  116       0.00001      53.03457      -4.25896     204.30000        54      sta5302n427w         0         0         0         1           sdc        54           tot       1.00000  
      55  pt118                  118       0.00001      53.03470      -4.29924      88.50000        55      sta5302n427w         0         0         0         1           sdc        55           tot       1.00000  
      56  pt120                  120       0.00001      53.04639      -4.22825     167.60001        56      sta5306n420w         0         0         0         1           sdc        56           tot       1.00000  
      57  pt122                  122       0.00001      53.05465      -4.19510     109.20000        57      sta5306n420w         0         0         0         1           sdc        57           tot       1.00000  
      58  pt124                  124       0.00001      53.05707      -4.21015     104.30000        58      sta5306n420w         0         0         0         1           sdc        58           tot       1.00000  
      59  pt126                  126       0.00001      53.03158      -4.29758      95.40000        59      sta5302n427w         0         0         0         1           sdc        59           tot       1.00000  
      60  pt128                  128       0.00001      53.06188      -4.21711     155.70000        60      sta5306n420w         0         0         0         1           sdc        60           tot       1.00000  
      61  pt130                  130       0.00001      53.03289      -4.25291     221.10001        61      sta5302n427w         0         0         0         1           sdc        61           tot       1.00000  
      62  pt132                  132       0.00001      53.04634      -4.20661     252.89999        62      sta5306n420w         0         0         0         1           sdc        62           tot       1.00000  
      63  pt134                  134       0.00001      53.02127      -4.24932     237.80000        63      sta5302n427w         0         0         0         1           sdc        63           tot       1.00000  
      64  pt136                  136       0.00001      53.05389      -4.18760     143.39999        64      sta5306n420w         0         0         0         1           sdc        64           tot       1.00000  
      65  pt138                  138       0.00001      53.03161      -4.24911     232.00000        65      sta5302n427w         0         0         0         1           sdc        65           tot       1.00000  
      66  pt140                  140       0.00001      53.05539      -4.22797      98.40000        66      sta5306n420w         0         0         0         1           sdc        66           tot       1.00000  
      67  pt142                  142       0.00001      53.02130      -4.24783     237.80000        67      sta5302n427w         0         0         0         1           sdc        67           tot       1.00000  
      68  pt144                  144       0.00001      53.05869      -4.17068     140.50000        68      sta5306n420w         0         0         0         1           sdc        68           tot       1.00000  
      69  pt146                  146       0.00001      53.06646      -4.21287     208.10001        69      sta5306n420w         0         0         0         1           sdc        69           tot       1.00000  
      70  pt148                  148       0.00001      53.05253      -4.18828     159.70000        70      sta5306n420w         0         0         0         1           sdc        70           tot       1.00000  
      71  pt150                  150       0.00001      53.05853      -4.22813     118.30000        71      sta5306n420w         0         0         0         1           sdc        71           tot       1.00000  
      72  pt152                  152       0.00001      53.02683      -4.28764     147.00000        72      sta5302n427w         0         0         0         1           sdc        72           tot       1.00000  
      73  pt154                  154       0.00001      53.06827      -4.21221     231.30000        73      sta5306n420w         0         0         0         1           sdc        73           tot       1.00000  
      74  pt156                  156       0.00001      53.06873      -4.21149     239.39999        74      sta5306n420w         0         0         0         1           sdc        74           tot       1.00000  
      75  pt158                  158       0.00001      53.02053      -4.24108     244.30000        75      sta5302n427w         0         0         0         1           sdc        75           tot       1.00000  
      76  pt160                  160       0.00001      53.02731      -4.28617     150.10001        76      sta5302n427w         0         0         0         1           sdc        76           tot       1.00000  
      77  pt162                  162       0.00001      53.04638      -4.25287     104.90000        77      sta5306n428w         0         0         0         1           sdc        77           tot       1.00000  
      78  pt164                  164       0.00001      53.06019      -4.16255     159.50000        78      sta5307n413w         0         0         0         1           sdc        78           tot       1.00000  
      79  pt166                  166       0.00001      53.03359      -4.23952     275.39999        79      sta5302n427w         0         0         0         1           sdc        79           tot       1.00000  
      80  pt168                  168       0.00001      53.02735      -4.28394     161.20000        80      sta5302n427w         0         0         0         1           sdc        80           tot       1.00000  
      81  pt170                  170       0.00001      53.04594      -4.25210     108.80000        81      sta5306n428w         0         0         0         1           sdc        81           tot       1.00000  
      82  pt172                  172       0.00001      53.05273      -4.17710     266.10001        82      sta5306n420w         0         0         0         1           sdc        82           tot       1.00000  
      83  pt174                  174       0.00001      53.04816      -4.30070      77.20000        83      sta5306n428w         0         0         0         1           sdc        83           tot       1.00000  
      84  pt176                  176       0.00001      53.03529      -4.22096     336.79999        84      sta5302n420w         0         0         0         1           sdc        84           tot       1.00000  
      85  pt178                  178       0.00001      53.05464      -4.24360     105.90000        85      sta5306n428w         0         0         0         1           sdc        85           tot       1.00000  
      86  pt180                  180       0.00001      53.03076      -4.24683     238.10001        86      sta5302n427w         0         0         0         1           sdc        86           tot       1.00000  
      87  pt182                  182       0.00001      53.05511      -4.24287      96.40000        87      sta5306n428w         0         0         0         1           sdc        87           tot       1.00000  
      88  pt184                  184       0.00001      53.06162      -4.23127     174.00000        88      sta5306n420w         0         0         0         1           sdc        88           tot       1.00000  
      89  pt186                  186       0.00001      53.06568      -4.20611     245.70000        89      sta5306n420w         0         0         0         1           sdc        89           tot       1.00000  
      90  pt188                  188       0.00001      53.02989      -4.24529     247.80000        90      sta5302n427w         0         0         0         1           sdc        90           tot       1.00000  
      91  pt190                  190       0.00001      53.05558      -4.24141      96.40000        91      sta5306n428w         0         0         0         1           sdc        91           tot       1.00000  
      92  pt192                  192       0.00001      53.02799      -4.29739     108.20000        92      sta5302n427w         0         0         0         1           sdc        92           tot       1.00000  
      93  pt194                  194       0.00001      53.03742      -4.20317     305.60001        93      sta5302n420w         0         0         0         1           sdc        93           tot       1.00000  
      94  pt196                  196       0.00001      53.05178      -4.25240      96.30000        94      sta5306n428w         0         0         0         1           sdc        94           tot       1.00000  
      95  pt198                  198       0.00001      53.07287      -4.20648     296.20001        95      sta5306n420w         0         0         0         1           sdc        95           tot       1.00000  
      96  pt200                  200       0.00001      53.06393      -4.22766     140.60001        96      sta5306n420w         0         0         0         1           sdc        96           tot       1.00000  
      97  pt202                  202       0.00001      53.02747      -4.27798     186.60001        97      sta5302n427w         0         0         0         1           sdc        97           tot       1.00000  
      98  pt204                  204       0.00001      53.03697      -4.20315     306.29999        98      sta5302n420w         0         0         0         1           sdc        98           tot       1.00000  
      99  pt206                  206       0.00001      53.04579      -4.23642     175.89999        99      sta5306n420w         0         0         0         1           sdc        99           tot       1.00000  
     100  pt208                  208       0.00001      53.04512      -4.27145     103.00000       100      sta5306n428w         0         0         0         1           sdc       100           tot       1.00000  
     101  pt210                  210       0.00001      53.05595      -4.24590      93.90000       101      sta5306n428w         0         0         0         1           sdc       101           tot       1.00000  
     102  pt212                  212       0.00001      53.01890      -4.23205     358.00000       102      sta5302n420w         0         0         0         1           sdc       102           tot       1.00000  
     103  pt214                  214       0.00001      53.03178      -4.21631     337.50000       103      sta5302n420w         0         0         0         1           sdc       103           tot       1.00000  
     104  pt216                  216       0.00001      53.05007      -4.22396     130.30000       104      sta5306n420w         0         0         0         1           sdc       104           tot       1.00000  
     105  pt218                  218       0.00001      53.03132      -4.21703     337.50000       105      sta5302n420w         0         0         0         1           sdc       105           tot       1.00000  
     106  pt220                  220       0.00001      53.06573      -4.22775     192.89999       106      sta5306n420w         0         0         0         1           sdc       106           tot       1.00000  
     107  pt222                  222       0.00001      53.07339      -4.20277     300.10001       107      sta5306n420w         0         0         0         1           sdc       107           tot       1.00000  
     108  pt224                  224       0.00001      53.02660      -4.27644     192.20000       108      sta5302n427w         0         0         0         1           sdc       108           tot       1.00000  
     109  pt226                  226       0.00001      53.05401      -4.25326     108.00000       109      sta5306n428w         0         0         0         1           sdc       109           tot       1.00000  
     110  pt228                  228       0.00001      53.01846      -4.23128     363.10001       110      sta5302n420w         0         0         0         1           sdc       110           tot       1.00000  
     111  pt232                  232       0.00001      53.03668      -4.31277      88.00000       111      sta5302n435w         0         0         0         1           sdc       111           tot       1.00000  
     112  pt234                  234       0.00001      53.04356      -4.23556     229.60001       112      sta5306n420w         0         0         0         1           sdc       112           tot       1.00000  
     113  pt236                  236       0.00001      53.03036      -4.24383     251.10001       113      sta5302n427w         0         0         0         1           sdc       113           tot       1.00000  
     114  pt238                  238       0.00001      53.05713      -4.23104      96.50000       114      sta5306n420w         0         0         0         1           sdc       114           tot       1.00000  
     115  pt240                  240       0.00001      53.03418      -4.20823     380.39999       115      sta5302n420w         0         0         0         1           sdc       115           tot       1.00000  
     116  pt242                  242       0.00001      53.03667      -4.19493     378.29999       116      sta5302n420w         0         0         0         1           sdc       116           tot       1.00000  
     117  pt244                  244       0.00001      53.05016      -4.17025     367.20001       117      sta5306n420w         0         0         0         1           sdc       117           tot       1.00000  
     118  pt246                  246       0.00001      53.01573      -4.23338     488.29999       118      sta5302n420w         0         0         0         1           sdc       118           tot       1.00000  
     119  pt248                  248       0.00001      53.01672      -4.22821     462.70001       119      sta5302n420w         0         0         0         1           sdc       119           tot       1.00000  
     120  pt250                  250       0.00001      53.01801      -4.23126     388.50000       120      sta5302n420w         0         0         0         1           sdc       120           tot       1.00000  
     121  pt252                  252       0.00001      53.01848      -4.23054     377.10001       121      sta5302n420w         0         0         0         1           sdc       121           tot       1.00000  
     122  pt254                  254       0.00001      53.01834      -4.23798     367.00000       122      sta5302n427w         0         0         0         1           sdc       122           tot       1.00000  
     123  pt256                  256       0.00001      53.01994      -4.24850     259.50000       123      sta5302n427w         0         0         0         1           sdc       123           tot       1.00000  
     124  pt258                  258       0.00001      53.02133      -4.24634     237.80000       124      sta5302n427w         0         0         0         1           sdc       124           tot       1.00000  
     125  pt260                  260       0.00001      53.02302      -4.29862     133.10001       125      sta5302n427w         0         0         0         1           sdc       125           tot       1.00000  
     126  pt262                  262       0.00001      53.02439      -4.27409     215.20000       126      sta5302n427w         0         0         0         1           sdc       126           tot       1.00000  
     127  pt264                  264       0.00001      53.02487      -4.27262     219.00000       127      sta5302n427w         0         0         0         1           sdc       127           tot       1.00000  
     128  pt266                  266       0.00001      53.02474      -4.27932     184.10001       128      sta5302n427w         0         0         0         1           sdc       128           tot       1.00000  
     129  pt268                  268       0.00001      53.02444      -4.29497     128.20000       129      sta5302n427w         0         0         0         1           sdc       129           tot       1.00000  
     130  pt270                  270       0.00001      53.02604      -4.25852     226.00000       130      sta5302n427w         0         0         0         1           sdc       130           tot       1.00000  
     131  pt272                  272       0.00001      53.02548      -4.28757     157.00000       131      sta5302n427w         0         0         0         1           sdc       131           tot       1.00000  
     132  pt274                  274       0.00001      53.02771      -4.24145     280.39999       132      sta5302n427w         0         0         0         1           sdc       132           tot       1.00000  
     133  pt276                  276       0.00001      53.02706      -4.27572     192.89999       133      sta5302n427w         0         0         0         1           sdc       133           tot       1.00000  
     134  pt278                  278       0.00001      53.02865      -4.21540     425.79999       134      sta5302n420w         0         0         0         1           sdc       134           tot       1.00000  
     135  pt280                  280       0.00001      53.02886      -4.22809     443.29999       135      sta5302n420w         0         0         0         1           sdc       135           tot       1.00000  
     136  pt282                  282       0.00001      53.02872      -4.23554     340.39999       136      sta5302n420w         0         0         0         1           sdc       136           tot       1.00000  
     137  pt284                  284       0.00001      53.02840      -4.25267     226.10001       137      sta5302n427w         0         0         0         1           sdc       137           tot       1.00000  