rout_unit.con: written by SWAT+ editor v1.2.3 on 2021-01-24 15:52
      id  name                gis_id          area           lat           lon          elev       rtu               wst       cst      ovfl      rule   out_tot       obj_typ    obj_id       hyd_typ          frac  
       1  rtu0010                 10       5.00000      53.04569      -4.32724      22.10000         1      sta5302n435w         0         0         0         2           sdc         1           tot       1.00000           aqu        17           rhg       1.00000  
       2  rtu0020                 20       7.50000      53.04496      -4.32314      32.33333         2      sta5302n435w         0         0         0         2           sdc         2           tot       1.00000           aqu        17           rhg       1.00000  
       3  rtu0030                 30      22.00000      53.04174      -4.31859      54.38636         3      sta5302n435w         0         0         0         2           sdc         3           tot       1.00000           aqu        17           rhg       1.00000  
       4  rtu0040                 40      58.25000      53.04372      -4.30827      72.88412         4      sta5306n428w         0         0         0         2           sdc         4           tot       1.00000           aqu        17           rhg       1.00000  
       5  rtu0050                 50      11.75000      53.04470      -4.29925      80.74468         5      sta5306n428w         0         0         0         2           sdc         5           tot       1.00000           aqu        17           rhg       1.00000  
       6  rtu0060                 60       8.00000      53.04474      -4.29267      89.18750         6      sta5306n428w         0         0         0         2           sdc         6           tot       1.00000           aqu        17           rhg       1.00000  
       7  rtu0070                 70       4.00000      53.04248      -4.29662      82.18750         7      sta5306n428w         0         0         0         2           sdc         7           tot       1.00000           aqu        17           rhg       1.00000  
       8  rtu0080                 80      10.25000      53.04161      -4.29186      89.19512         8      sta5306n428w         0         0         0         2           sdc         8           tot       1.00000           aqu        17           rhg       1.00000  
       9  rtu0090                 90      31.75000      53.04347      -4.28650      98.40157         9      sta5306n428w         0         0         0         2           sdc         9           tot       1.00000           aqu         7           rhg       1.00000  
      10  rtu0100                100       4.25000      53.04610      -4.28238      94.52941        10      sta5306n428w         0         0         0         2           sdc        10           tot       1.00000           aqu         7           rhg       1.00000  
      11  rtu0110                110      27.25000      53.04914      -4.27798      98.73394        11      sta5306n428w         0         0         0         2           sdc        11           tot       1.00000           aqu         7           rhg       1.00000  
      12  rtu0120                120       3.50000      53.05130      -4.27268     103.50000        12      sta5306n428w         0         0         0         2           sdc        12           tot       1.00000           aqu         7           rhg       1.00000  
      13  rtu0130                130       0.25000      53.05051      -4.27173      96.00000        13      sta5306n428w         0         0         0         2           sdc        13           tot       1.00000           aqu         8           rhg       1.00000  
      14  rtu0140                140       0.75000      53.05038      -4.27073      96.00000        14      sta5306n428w         0         0         0         2           sdc        14           tot       1.00000           aqu         8           rhg       1.00000  
      15  rtu0150                150      13.50000      53.04914      -4.26674      97.90741        15      sta5306n428w         0         0         0         2           sdc        15           tot       1.00000           aqu         8           rhg       1.00000  
      16  rtu0160                160       8.50000      53.05035      -4.26178     105.26471        16      sta5306n428w         0         0         0         2           sdc        16           tot       1.00000           aqu         8           rhg       1.00000  
      17  rtu0170                170       1.75000      53.05067      -4.26002     100.42857        17      sta5306n428w         0         0         0         2           sdc        17           tot       1.00000           aqu         8           rhg       1.00000  
      18  rtu0180                180       8.00000      53.04861      -4.25683     104.59375        18      sta5306n428w         0         0         0         2           sdc        18           tot       1.00000           aqu         8           rhg       1.00000  
      19  rtu0190                190      10.00000      53.04888      -4.25264     107.80000        19      sta5306n428w         0         0         0         2           sdc        19           tot       1.00000           aqu        19           rhg       1.00000  
      20  rtu0200                200       6.25000      53.05009      -4.25049     101.52000        20      sta5306n428w         0         0         0         2           sdc        20           tot       1.00000           aqu        19           rhg       1.00000  
      21  rtu0210                210       0.50000      53.04984      -4.24782     102.50000        21      sta5306n428w         0         0         0         2           sdc        21           tot       1.00000           aqu        19           rhg       1.00000  
      22  rtu0220                220       5.50000      53.05117      -4.24677     107.40909        22      sta5306n428w         0         0         0         2           sdc        22           tot       1.00000           aqu        19           rhg       1.00000  
      23  rtu0230                230      21.00000      53.05026      -4.24132     117.54762        23      sta5306n428w         0         0         0         2           sdc        23           tot       1.00000           aqu        19           rhg       1.00000  
      24  rtu0240                240       0.75000      53.05071      -4.23742      99.00000        24      sta5306n428w         0         0         0         2           sdc        24           tot       1.00000           aqu        19           rhg       1.00000  
      25  rtu0250                250       2.25000      53.05018      -4.23392      98.00000        25      sta5306n420w         0         0         0         2           sdc        25           tot       1.00000           aqu        19           rhg       1.00000  
      26  rtu0260                260       7.50000      53.05404      -4.22847      99.23333        26      sta5306n420w         0         0         0         2           sdc        26           tot       1.00000           aqu        19           rhg       1.00000  
      27  rtu0270                270       1.00000      53.05104      -4.23222      96.25000        27      sta5306n420w         0         0         0         2           sdc        27           tot       1.00000           aqu        20           rhg       1.00000  
      28  rtu0280                280       1.00000      53.05208      -4.23078      96.00000        28      sta5306n420w         0         0         0         2           sdc        28           tot       1.00000           aqu        20           rhg       1.00000  
      29  rtu0290                290       3.00000      53.05248      -4.22707      98.41667        29      sta5306n420w         0         0         0         2           sdc        29           tot       1.00000           aqu        20           rhg       1.00000  
      30  rtu0300                300       2.25000      53.05514      -4.22497     100.22222        30      sta5306n420w         0         0         0         2           sdc        30           tot       1.00000           aqu        20           rhg       1.00000  
      31  rtu0310                310       6.75000      53.05630      -4.22180     107.37037        31      sta5306n420w         0         0         0         2           sdc        31           tot       1.00000           aqu        20           rhg       1.00000  
      32  rtu0320                320       8.25000      53.05545      -4.21904      97.81818        32      sta5306n420w         0         0         0         2           sdc        32           tot       1.00000           aqu        20           rhg       1.00000  
      33  rtu0330                330      13.25000      53.03939      -4.28711     110.94340        33      sta5302n427w         0         0         0         2           sdc        33           tot       1.00000           aqu        16           rhg       1.00000  
      34  rtu0340                340      10.25000      53.03453      -4.28186     149.97561        34      sta5302n427w         0         0         0         2           sdc        34           tot       1.00000           aqu        16           rhg       1.00000  
      35  rtu0350                350      28.50000      53.05193      -4.21372     152.23684        35      sta5306n420w         0         0         0         2           sdc        35           tot       1.00000           aqu        20           rhg       1.00000  
      36  rtu0360                360       2.00000      53.05271      -4.21188     101.12500        36      sta5306n420w         0         0         0         2           sdc        36           tot       1.00000           aqu        20           rhg       1.00000  
      37  rtu0370                370       3.50000      53.04911      -4.27113      98.85714        37      sta5306n428w         0         0         0         2           sdc        37           tot       1.00000           aqu        12           rhg       1.00000  
      38  rtu0380                380       1.50000      53.05316      -4.21082      97.33333        38      sta5306n420w         0         0         0         2           sdc        38           tot       1.00000           aqu        20           rhg       1.00000  
      39  rtu0390                390       3.00000      53.04795      -4.27278     101.08333        39      sta5306n428w         0         0         0         2           sdc        39           tot       1.00000           aqu        12           rhg       1.00000  
      40  rtu0400                400       9.75000      53.05468      -4.20767     101.23077        40      sta5306n420w         0         0         0         2           sdc        40           tot       1.00000           aqu        18           rhg       1.00000  
      41  rtu0410                410      12.75000      53.05303      -4.20476     117.21569        41      sta5306n420w         0         0         0         2           sdc        41           tot       1.00000           aqu        18           rhg       1.00000  
      42  rtu0420                420      13.00000      53.05643      -4.20143     146.00000        42      sta5306n420w         0         0         0         2           sdc        42           tot       1.00000           aqu        18           rhg       1.00000  
      43  rtu0430                430      33.25000      53.03378      -4.27372     177.19549        43      sta5302n427w         0         0         0         2           sdc        43           tot       1.00000           aqu        16           rhg       1.00000  
      44  rtu0440                440      19.00000      53.05582      -4.19689     173.72368        44      sta5306n420w         0         0         0         2           sdc        44           tot       1.00000           aqu        18           rhg       1.00000  
      45  rtu0450                450      34.75000      53.02910      -4.26526     222.48921        45      sta5302n427w         0         0         0         2           sdc        45           tot       1.00000           aqu        16           rhg       1.00000  
      46  rtu0460                460      20.50000      53.03999      -4.29524      89.54878        46      sta5302n427w         0         0         0         2           sdc        46           tot       1.00000           aqu        15           rhg       1.00000  
      47  rtu0470                470       1.25000      53.02826      -4.25982     221.40000        47      sta5302n427w         0         0         0         2           sdc        47           tot       1.00000           aqu        16           rhg       1.00000  
      48  rtu0480                480       1.75000      53.04980      -4.23162     102.00000        48      sta5306n420w         0         0         0         2           sdc        48           tot       1.00000           aqu        13           rhg       1.00000  
      49  rtu0490                490       0.50000      53.03768      -4.29604      85.00000        49      sta5302n427w         0         0         0         2           sdc        49           tot       1.00000           aqu        15           rhg       1.00000  
      50  rtu0500                500       1.75000      53.02830      -4.25767     222.00000        50      sta5302n427w         0         0         0         2           sdc        50           tot       1.00000           aqu        16           rhg       1.00000  
      51  rtu0510                510      42.50000      53.03981      -4.27009     146.94706        51      sta5302n427w         0         0         0         2           sdc        51           tot       1.00000           aqu        12           rhg       1.00000  
      52  rtu0520                520      11.75000      53.03659      -4.29885      94.63830        52      sta5302n427w         0         0         0         2           sdc        52           tot       1.00000           aqu        15           rhg       1.00000  
      53  rtu0530                530       1.50000      53.03395      -4.26030     201.83333        53      sta5302n427w         0         0         0         2           sdc        53           tot       1.00000           aqu        12           rhg       1.00000  
      54  rtu0540                540       2.00000      53.03535      -4.25667     213.00000        54      sta5302n427w         0         0         0         2           sdc        54           tot       1.00000           aqu        12           rhg       1.00000  
      55  rtu0550                550       2.75000      53.03456      -4.30025      92.72727        55      sta5302n427w         0         0         0         2           sdc        55           tot       1.00000           aqu        15           rhg       1.00000  
      56  rtu0560                560      10.25000      53.04598      -4.22892     188.65854        56      sta5306n420w         0         0         0         2           sdc        56           tot       1.00000           aqu        13           rhg       1.00000  
      57  rtu0570                570       2.00000      53.05492      -4.19567     107.75000        57      sta5306n420w         0         0         0         2           sdc        57           tot       1.00000           aqu        18           rhg       1.00000  
      58  rtu0580                580       8.75000      53.05790      -4.21085     122.62857        58      sta5306n420w         0         0         0         2           sdc        58           tot       1.00000           aqu         4           rhg       1.00000  
      59  rtu0590                590      24.00000      53.03125      -4.29402     117.50000        59      sta5302n427w         0         0         0         2           sdc        59           tot       1.00000           aqu        15           rhg       1.00000  
      60  rtu0600                600      23.25000      53.06008      -4.22123     155.65591        60      sta5306n420w         0         0         0         2           sdc        60           tot       1.00000           aqu         1           rhg       1.00000  
      61  rtu0610                610       7.75000      53.03348      -4.25469     215.96774        61      sta5302n427w         0         0         0         2           sdc        61           tot       1.00000           aqu        12           rhg       1.00000  
      62  rtu0620                620      16.50000      53.04840      -4.20759     210.07576        62      sta5306n420w         0         0         0         2           sdc        62           tot       1.00000           aqu        10           rhg       1.00000  
      63  rtu0630                630      55.75000      53.02267      -4.25199     276.93722        63      sta5302n427w         0         0         0         2           sdc        63           tot       1.00000           aqu        16           rhg       1.00000  
      64  rtu0640                640      27.50000      53.05235      -4.18508     224.36364        64      sta5306n420w         0         0         0         2           sdc        64           tot       1.00000           aqu        18           rhg       1.00000  
      65  rtu0650                650      11.50000      53.03040      -4.24838     240.91304        65      sta5302n427w         0         0         0         2           sdc        65           tot       1.00000           aqu        12           rhg       1.00000  
      66  rtu0660                660      22.25000      53.05425      -4.23150     108.66292        66      sta5306n420w         0         0         0         2           sdc        66           tot       1.00000           aqu         2           rhg       1.00000  
      67  rtu0670                670       0.75000      53.02114      -4.24807     237.00000        67      sta5302n427w         0         0         0         2           sdc        67           tot       1.00000           aqu        16           rhg       1.00000  
      68  rtu0680                680     174.50000      53.05968      -4.18187     262.67765        68      sta5306n420w         0         0         0         2           sdc        68           tot       1.00000           aqu         5           rhg       1.00000  
      69  rtu0690                690      45.25000      53.06650      -4.21548     236.90055        69      sta5306n420w         0         0         0         2           sdc        69           tot       1.00000           aqu         1           rhg       1.00000  
      70  rtu0700                700       7.00000      53.05042      -4.18391     265.42857        70      sta5306n420w         0         0         0         2           sdc        70           tot       1.00000           aqu        11           rhg       1.00000  
      71  rtu0710                710       5.25000      53.05752      -4.22726     114.42857        71      sta5306n420w         0         0         0         2           sdc        71           tot       1.00000           aqu         2           rhg       1.00000  
      72  rtu0720                720      24.25000      53.02840      -4.28921     141.94845        72      sta5302n427w         0         0         0         2           sdc        72           tot       1.00000           aqu        15           rhg       1.00000  
      73  rtu0730                730       5.50000      53.06821      -4.21306     241.81818        73      sta5306n420w         0         0         0         2           sdc        73           tot       1.00000           aqu         1           rhg       1.00000  
      74  rtu0740                740       6.75000      53.07377      -4.21211     317.37037        74      sta5306n420w         0         0         0         2           sdc        74           tot       1.00000           aqu         1           rhg       1.00000  
      75  rtu0750                750      26.50000      53.01894      -4.24354     371.21698        75      sta5302n427w         0         0         0         2           sdc        75           tot       1.00000           aqu        16           rhg       1.00000  
      76  rtu0760                760       4.25000      53.02636      -4.28472     164.58824        76      sta5302n427w         0         0         0         2           sdc        76           tot       1.00000           aqu        15           rhg       1.00000  
      77  rtu0770                770      12.50000      53.04668      -4.25513     121.18000        77      sta5306n428w         0         0         0         2           sdc        77           tot       1.00000           aqu        14           rhg       1.00000  
      78  rtu0780                780      59.00000      53.06109      -4.16513     286.04237        78      sta5306n420w         0         0         0         2           sdc        78           tot       1.00000           aqu         5           rhg       1.00000  
      79  rtu0790                790      33.75000      53.03304      -4.24094     277.16296        79      sta5302n427w         0         0         0         2           sdc        79           tot       1.00000           aqu        12           rhg       1.00000  
      80  rtu0800                800       4.25000      53.02800      -4.28327     171.41176        80      sta5302n427w         0         0         0         2           sdc        80           tot       1.00000           aqu        15           rhg       1.00000  
      81  rtu0810                810       0.75000      53.04581      -4.25134     129.33333        81      sta5306n428w         0         0         0         2           sdc        81           tot       1.00000           aqu        14           rhg       1.00000  
      82  rtu0820                820      34.00000      53.05307      -4.17953     256.12500        82      sta5306n420w         0         0         0         2           sdc        82           tot       1.00000           aqu         9           rhg       1.00000  
      83  rtu0830                830      11.50000      53.04757      -4.30100      82.58696        83      sta5306n428w         0         0         0         2           sdc        83           tot       1.00000           aqu        17           rhg       1.00000  
      84  rtu0840                840      51.00000      53.03916      -4.22463     319.50000        84      sta5302n420w         0         0         0         2           sdc        84           tot       1.00000           aqu        13           rhg       1.00000  
      85  rtu0850                850       9.75000      53.05354      -4.24417     110.89744        85      sta5306n428w         0         0         0         2           sdc        85           tot       1.00000           aqu         6           rhg       1.00000  
      86  rtu0860                860      12.00000      53.02778      -4.24369     280.72917        86      sta5302n427w         0         0         0         2           sdc        86           tot       1.00000           aqu        12           rhg       1.00000  
      87  rtu0870                870       2.50000      53.05599      -4.24389     117.00000        87      sta5306n428w         0         0         0         2           sdc        87           tot       1.00000           aqu         6           rhg       1.00000  
      88  rtu0880                880      16.25000      53.06235      -4.23201     202.29231        88      sta5306n420w         0         0         0         2           sdc        88           tot       1.00000           aqu         2           rhg       1.00000  
      89  rtu0890                890      64.50000      53.06401      -4.20649     234.12791        89      sta5306n420w         0         0         0         2           sdc        89           tot       1.00000           aqu         3           rhg       1.00000  
      90  rtu0900                900       0.50000      53.03010      -4.24568     245.50000        90      sta5302n427w         0         0         0         2           sdc        90           tot       1.00000           aqu        12           rhg       1.00000  
      91  rtu0910                910       2.00000      53.05602      -4.24227     106.62500        91      sta5306n428w         0         0         0         2           sdc        91           tot       1.00000           aqu         6           rhg       1.00000  
      92  rtu0920                920      36.25000      53.02813      -4.29986     131.77931        92      sta5302n427w         0         0         0         2           sdc        92           tot       1.00000           aqu        15           rhg       1.00000  
      93  rtu0930                930      77.25000      53.04087      -4.20506     350.93528        93      sta5302n420w         0         0         0         2           sdc        93           tot       1.00000           aqu        10           rhg       1.00000  
      94  rtu0940                940       3.50000      53.05135      -4.25131     100.21429        94      sta5306n428w         0         0         0         2           sdc        94           tot       1.00000           aqu        19           rhg       1.00000  
      95  rtu0950                950       8.00000      53.07184      -4.20761     289.43750        95      sta5306n420w         0         0         0         2           sdc        95           tot       1.00000           aqu         1           rhg       1.00000  
      96  rtu0960                960      24.75000      53.06543      -4.23295     242.66667        96      sta5306n420w         0         0         0         2           sdc        96           tot       1.00000           aqu         2           rhg       1.00000  
      97  rtu0970                970      14.25000      53.02856      -4.27854     193.43860        97      sta5302n427w         0         0         0         2           sdc        97           tot       1.00000           aqu        15           rhg       1.00000  
      98  rtu0980                980       6.00000      53.03574      -4.19995     373.37500        98      sta5302n420w         0         0         0         2           sdc        98           tot       1.00000           aqu        10           rhg       1.00000  
      99  rtu0990                990      25.50000      53.04644      -4.23456     171.89216        99      sta5306n420w         0         0         0         2           sdc        99           tot       1.00000           aqu        19           rhg       1.00000  
     100  rtu1000               1000       5.50000      53.04483      -4.27269     103.81818       100      sta5306n428w         0         0         0         2           sdc       100           tot       1.00000           aqu        12           rhg       1.00000  
     101  rtu1010               1010      10.75000      53.05726      -4.24623     154.06977       101      sta5306n428w         0         0         0         2           sdc       101           tot       1.00000           aqu         6           rhg       1.00000  
     102  rtu1020               1020      64.50000      53.02102      -4.23201     450.39535       102      sta5302n420w         0         0         0         2           sdc       102           tot       1.00000           aqu        16           rhg       1.00000  
     103  rtu1030               1030      31.00000      53.03365      -4.21648     364.54032       103      sta5302n420w         0         0         0         2           sdc       103           tot       1.00000           aqu        13           rhg       1.00000  
     104  rtu1040               1040      12.75000      53.05068      -4.22663     116.54902       104      sta5306n420w         0         0         0         2           sdc       104           tot       1.00000           aqu        20           rhg       1.00000  
     105  rtu1050               1050       4.25000      53.03117      -4.22049     373.88235       105      sta5302n420w         0         0         0         2           sdc       105           tot       1.00000           aqu        13           rhg       1.00000  
     106  rtu1060               1060      15.00000      53.06760      -4.23194     261.31667       106      sta5306n420w         0         0         0         2           sdc       106           tot       1.00000           aqu         2           rhg       1.00000  
     107  rtu1070               1070      15.00000      53.07375      -4.20092     331.21667       107      sta5306n420w         0         0         0         2           sdc       107           tot       1.00000           aqu         1           rhg       1.00000  
     108  rtu1080               1080       1.25000      53.02669      -4.27644     193.20000       108      sta5302n427w         0         0         0         2           sdc       108           tot       1.00000           aqu        15           rhg       1.00000  
     109  rtu1090               1090       8.75000      53.05533      -4.25664     149.51429       109      sta5306n428w         0         0         0         2           sdc       109           tot       1.00000           aqu        19           rhg       1.00000  
     110  rtu1100               1100       0.25000      53.01846      -4.23128     363.00000       110      sta5302n420w         0         0         0         2           sdc       110           tot       1.00000           aqu        16           rhg       1.00000  