rout_unit.def: written by SWAT+ editor v1.2.3 on 2021-01-24 15:52
      id              name  elem_tot  elements  
       1           rtu0010         2       502      -504  
       2           rtu0020         2       507      -509  
       3           rtu0030         2       512      -513  
       4           rtu0040         2       500      -501  
       5           rtu0050         2       505      -506  
       6           rtu0060         2       510      -511  
       7           rtu0070         2       518      -519  
       8           rtu0080         2       520      -521  
       9           rtu0090         2       165      -167  
      10           rtu0100         2       162      -164  
      11           rtu0110         2       156      -158  
      12           rtu0120         2       159      -161  
      13           rtu0130         1       184  
      14           rtu0140         1       185  
      15           rtu0150         2       186      -187  
      16           rtu0160         2       178      -180  
      17           rtu0170         2       181      -183  
      18           rtu0180         2       191      -193  
      19           rtu0190         2       583      -588  
      20           rtu0200         2       594      -600  
      21           rtu0210         2       604      -605  
      22           rtu0220         2       573      -577  
      23           rtu0230         2       578      -582  
      24           rtu0240         2       601      -602  
      25           rtu0250         1       603  
      26           rtu0260         1       572  
      27           rtu0270         1       662  
      28           rtu0280         1       659  
      29           rtu0290         1       647  
      30           rtu0300         2       645      -646  
      31           rtu0310         2       635      -637  
      32           rtu0320         2       642      -644  
      33           rtu0330         2       412      -413  
      34           rtu0340         2       416      -417  
      35           rtu0350         2       638      -641  
      36           rtu0360         2       652      -655  
      37           rtu0370         2       231      -232  
      38           rtu0380         2       656      -657  
      39           rtu0390         2       233      -235  
      40           rtu0400         2       536      -538  
      41           rtu0410         2       539      -540  
      42           rtu0420         2       534      -535  
      43           rtu0430         2       420      -421  
      44           rtu0440         2       529      -533  
      45           rtu0450         2       427      -434  
      46           rtu0460         2       354      -356  
      47           rtu0470         2       439      -440  
      48           rtu0480         2       303      -305  
      49           rtu0490         2       362      -363  
      50           rtu0500         2       441      -443  
      51           rtu0510         2       236      -239  
      52           rtu0520         2       357      -359  
      53           rtu0530         1       271  
      54           rtu0540         2       261      -262  
      55           rtu0550         2       368      -369  
      56           rtu0560         2       306      -309  
      57           rtu0570         2       541      -542  
      58           rtu0580         2       107      -109  
      59           rtu0590         2       372      -373  
      60           rtu0600         2        41       -45  
      61           rtu0610         1       279  
      62           rtu0620         2       205      -206  
      63           rtu0630         2       456      -459  
      64           rtu0640         2       543      -545  
      65           rtu0650         2       286      -287  
      66           rtu0660         2        79       -83  
      67           rtu0670         1       472  
      68           rtu0680         2       110      -113  
      69           rtu0690         2        28       -29  
      70           rtu0700         2       225      -227  
      71           rtu0710         2        84       -86  
      72           rtu0720         2       374      -375  
      73           rtu0730         1        40  
      74           rtu0740         2        14       -15  
      75           rtu0750         2       470      -471  
      76           rtu0760         2       387      -389  
      77           rtu0770         2       337      -341  
      78           rtu0780         2       114      -116  
      79           rtu0790         2       268      -269  
      80           rtu0800         2       383      -384  
      81           rtu0810         2       346      -347  
      82           rtu0820         2       197      -199  
      83           rtu0830         2       497      -499  
      84           rtu0840         2       312      -318  
      85           rtu0850         2       148      -149  
      86           rtu0860         2       288      -290  
      87           rtu0870         2       137      -139  
      88           rtu0880         2        61       -62  
      89           rtu0890         2        97      -100  
      90           rtu0900         1       297  
      91           rtu0910         2       140      -142  
      92           rtu0920         2       376      -377  
      93           rtu0930         2       208      -210  
      94           rtu0940         2       589      -593  
      95           rtu0950         2        21       -24  
      96           rtu0960         2        57       -60  
      97           rtu0970         2       385      -386  
      98           rtu0980         1       221  
      99           rtu0990         2       613      -615  
     100           rtu1000         2       245      -246  
     101           rtu1010         2       135      -136  
     102           rtu1020         2       466      -469  
     103           rtu1030         2       321      -323  
     104           rtu1040         2       660      -661  
     105           rtu1050         2       327      -330  
     106           rtu1060         2        54       -56  
     107           rtu1070         2        18       -20  
     108           rtu1080         2       404      -405  
     109           rtu1090         2       563      -566  
     110           rtu1100         1       482  
     111           rtu1110         2       514      -515  
     112           rtu1120         2       621      -622  
     113           rtu1130         2       291      -292  
     114           rtu1140         2        87       -89  
     115           rtu1150         2       214      -217  
     116           rtu1160         2       211      -212  
     117           rtu1170         1       200  
     118           rtu1180         2       480      -481  
     119           rtu1190         2       478      -479  
     120           rtu1200         2       483      -484  
     121           rtu1210         2       473      -475  
     122           rtu1220         1       477  
     123           rtu1230         1       476  
     124           rtu1240         2       460      -465  
     125           rtu1250         2       390      -392  
     126           rtu1260         2       400      -403  
     127           rtu1270         2       408      -411  
     128           rtu1280         2       398      -399  
     129           rtu1290         2       393      -394  
     130           rtu1300         2       447      -455  
     131           rtu1310         2       406      -407  
     132           rtu1320         1       302  
     133           rtu1330         2       395      -397  
     134           rtu1340         2       334      -336  
     135           rtu1350         2       284      -285  
     136           rtu1360         2       300      -301  
     137           rtu1370         2       435      -438  
     138           rtu1380         2       444      -446  
     139           rtu1390         2       378      -382  
     140           rtu1400         1       333  
     141           rtu1410         2       298      -299  
     142           rtu1420         2       331      -332  
     143           rtu1430         2       293      -296  
     144           rtu1440         1       222  
     145           rtu1450         1       224  
     146           rtu1460         2       218      -220  
     147           rtu1470         2       263      -267  
     148           rtu1480         2       324      -326  
     149           rtu1490         1       270  
     150           rtu1500         2       280      -283  
     151           rtu1510         2       424      -426  
     152           rtu1520         2       370      -371  
     153           rtu1530         2       366      -367  
     154           rtu1540         2       272      -278  
     155           rtu1550         2       422      -423  
     156           rtu1560         1       223  
     157           rtu1570         2       259      -260  
     158           rtu1580         2       364      -365  
     159           rtu1590         1       213  
     160           rtu1600         2       418      -419  
     161           rtu1610         2       525      -526  
     162           rtu1620         2       527      -528  
     163           rtu1630         2       414      -415  
     164           rtu1640         2       247      -251  
     165           rtu1650         2       360      -361  
     166           rtu1660         2       348      -351  
     167           rtu1670         2       319      -320  
     168           rtu1680         2       516      -517  
     169           rtu1690         2       228      -229  
     170           rtu1700         2       626      -628  
     171           rtu1710         2       623      -625  
     172           rtu1720         2       522      -524  
     173           rtu1730         2       255      -258  
     174           rtu1740         2       252      -254  
     175           rtu1750         2       168      -169  
     176           rtu1760         2       201      -202  
     177           rtu1770         2       663      -666  
     178           rtu1780         2       240      -244  
     179           rtu1790         1       207  
     180           rtu1800         2       352      -353  
     181           rtu1810         2       342      -345  
     182           rtu1820         2       619      -620  
     183           rtu1830         2       551      -552  
     184           rtu1840         2       667      -670  
     185           rtu1850         2       606      -609  
     186           rtu1860         2       310      -311  
     187           rtu1870         2       616      -618  
     188           rtu1880         1       203  
     189           rtu1890         1       204  
     190           rtu1900         2       494      -496  
     191           rtu1910         2       671      -672  
     192           rtu1920         2       558      -559  
     193           rtu1930         2       188      -190  
     194           rtu1940         2       610      -612  
     195           rtu1950         2       194      -196  
     196           rtu1960         2       491      -493  
     197           rtu1970         2       488      -490  
     198           rtu1980         1       230  
     199           rtu1990         2       553      -557  
     200           rtu2000         1       658  
     201           rtu2010         2       176      -177  
     202           rtu2020         2       174      -175  
     203           rtu2030         2       648      -651  
     204           rtu2040         2       154      -155  
     205           rtu2050         2       546      -550  
     206           rtu2060         2       567      -571  
     207           rtu2070         2       170      -173  
     208           rtu2080         2       152      -153  
     209           rtu2090         2       633      -634  
     210           rtu2100         1       122  
     211           rtu2110         2       143      -147  
     212           rtu2120         1       560  
     213           rtu2130         2       485      -487  
     214           rtu2140         2       561      -562  
     215           rtu2150         2       150      -151  
     216           rtu2160         2        75       -78  
     217           rtu2170         2       103      -106  
     218           rtu2180         2       131      -132  
     219           rtu2190         2       133      -134  
     220           rtu2200         2        71       -74  
     221           rtu2210         2       629      -632  
     222           rtu2220         1       121  
     223           rtu2230         2        66       -70  
     224           rtu2240         2       126      -130  
     225           rtu2250         2       117      -120  
     226           rtu2260         2       123      -125  
     227           rtu2270         2        34       -39  
     228           rtu2280         2       101      -102  
     229           rtu2290         2        63       -65  
     230           rtu2300         2        50       -53  
     231           rtu2310         2        30       -33  
     232           rtu2320         2        48       -49  
     233           rtu2330         2        46       -47  
     234           rtu2340         2        94       -96  
     235           rtu2350         2         9       -13  
     236           rtu2360         2        90       -93  
     237           rtu2370         2        25       -27  
     238           rtu2380         2         1        -3  
     239           rtu2390         2        16       -17  
     240           rtu2400         2         4        -8  
