rout_unit.ele: written by SWAT+ editor v1.2.3 on 2021-01-24 15:52
      id  name                   obj_typ    obj_id          frac               dlr  
       1  hru001                     hru         1     7.3618E-1                 0  
       2  hru002                     hru         2     9.4231E-2                 0  
       3  hru003                     hru         3     1.6959E-1                 0  
       4  hru004                     hru         4     7.1429E-2                 0  
       5  hru005                     hru         5     1.7857E-2                 0  
       6  hru006                     hru         6     1.7857E-1                 0  
       7  hru007                     hru         7     4.8810E-1                 0  
       8  hru008                     hru         8     2.4405E-1                 0  
       9  hru009                     hru         9     1.2500E-1                 0  
      10  hru010                     hru        10     5.4167E-1                 0  
      11  hru011                     hru        11     6.9444E-2                 0  
      12  hru012                     hru        12     2.0833E-1                 0  
      13  hru013                     hru        13     5.5556E-2                 0  
      14  hru014                     hru        14     4.4444E-1                 0  
      15  hru015                     hru        15     5.5556E-1                 0  
      16  hru016                     hru        16     1.9118E-1                 0  
      17  hru017                     hru        17     8.0882E-1                 0  
      18  hru018                     hru        18     6.9492E-1                 0  
      19  hru019                     hru        19     1.8644E-1                 0  
      20  hru020                     hru        20     1.1864E-1                 0  
      21  hru021                     hru        21     2.1875E-1                 0  
      22  hru022                     hru        22     1.2500E-1                 0  
      23  hru023                     hru        23     3.1250E-1                 0  
      24  hru024                     hru        24     3.4375E-1                 0  
      25  hru025                     hru        25     8.9552E-2                 0  
      26  hru026                     hru        26     7.9104E-1                 0  
      27  hru027                     hru        27     1.1940E-1                 0  
      28  hru028                     hru        28     4.0268E-1                 0  
      29  hru029                     hru        29     5.9732E-1                 0  
      30  hru030                     hru        30     2.8000E-1                 0  
      31  hru031                     hru        31     5.2000E-1                 0  
      32  hru032                     hru        32     4.0000E-2                 0  
      33  hru033                     hru        33     1.6000E-1                 0  
      34  hru034                     hru        34     3.6250E-1                 0  
      35  hru035                     hru        35     2.2500E-1                 0  
      36  hru036                     hru        36     8.7500E-2                 0  
      37  hru037                     hru        37     1.2500E-2                 0  
      38  hru038                     hru        38     1.2500E-2                 0  
      39  hru039                     hru        39     3.0000E-1                 0  
      40  hru040                     hru        40     1.0000E+0                 0  
      41  hru041                     hru        41     4.8043E-1                 0  
      42  hru042                     hru        42     8.6232E-2                 0  
      43  hru043                     hru        43     2.4444E-1                 0  
      44  hru044                     hru        44     1.3333E-1                 0  
      45  hru045                     hru        45     5.5556E-2                 0  
      46  hru046                     hru        46     7.0270E-1                 0  
      47  hru047                     hru        47     2.9730E-1                 0  
      48  hru048                     hru        48     6.0000E-1                 0  
      49  hru049                     hru        49     4.0000E-1                 0  
      50  hru050                     hru        50     7.0529E-1                 0  
      51  hru051                     hru        51     8.1379E-2                 0  
      52  hru052                     hru        52     1.4222E-1                 0  
      53  hru053                     hru        53     7.1111E-2                 0  
      54  hru054                     hru        54     4.2308E-1                 0  
      55  hru055                     hru        55     3.4615E-1                 0  
      56  hru056                     hru        56     2.3077E-1                 0  
      57  hru057                     hru        57     1.9453E-1                 0  
      58  hru058                     hru        58     3.7690E-1                 0  
      59  hru059                     hru        59     2.2041E-1                 0  
      60  hru060                     hru        60     2.0816E-1                 0  
      61  hru061                     hru        61     8.0000E-1                 0  
      62  hru062                     hru        62     2.0000E-1                 0  
      63  hru063                     hru        63     6.6667E-1                 0  
      64  hru064                     hru        64     1.1828E-1                 0  
      65  hru065                     hru        65     2.1505E-1                 0  
      66  hru066                     hru        66     3.8000E-1                 0  
      67  hru067                     hru        67     6.0000E-2                 0  
      68  hru068                     hru        68     1.2000E-1                 0  
      69  hru069                     hru        69     3.1429E-1                 0  
      70  hru070                     hru        70     1.2571E-1                 0  
      71  hru071                     hru        71     8.1395E-1                 0  
      72  hru072                     hru        72     9.3023E-2                 0  
      73  hru073                     hru        73     6.9767E-2                 0  
      74  hru074                     hru        74     2.3256E-2                 0  
      75  hru075                     hru        75     2.1739E-1                 0  
      76  hru076                     hru        76     2.6087E-1                 0  
      77  hru077                     hru        77     3.0435E-1                 0  
      78  hru078                     hru        78     2.1739E-1                 0  
      79  hru079                     hru        79     3.5955E-1                 0  
      80  hru080                     hru        80     5.6180E-2                 0  
      81  hru081                     hru        81     8.9888E-2                 0  
      82  hru082                     hru        82     5.8855E-2                 0  
      83  hru083                     hru        83     4.3553E-1                 0  
      84  hru084                     hru        84     2.8571E-1                 0  
      85  hru085                     hru        85     2.8571E-1                 0  
      86  hru086                     hru        86     4.2857E-1                 0  
      87  hru087                     hru        87     4.5000E-1                 0  
      88  hru088                     hru        88     4.5000E-1                 0  
      89  hru089                     hru        89     1.0000E-1                 0  
      90  hru090                     hru        90     5.8367E-1                 0  
      91  hru091                     hru        91     6.6327E-2                 0  
      92  hru092                     hru        92     2.5000E-1                 0  
      93  hru093                     hru        93     1.0000E-1                 0  
      94  hru094                     hru        94     4.6154E-1                 0  
      95  hru095                     hru        95     1.1538E-1                 0  
      96  hru096                     hru        96     4.2308E-1                 0  
      97  hru097                     hru        97     4.9941E-1                 0  
      98  hru098                     hru        98     8.5265E-2                 0  
      99  hru099                     hru        99     5.1915E-2                 0  
     100  hru100                     hru       100     3.6341E-1                 0  
     101  hru101                     hru       101     6.0942E-1                 0  
     102  hru102                     hru       102     3.9058E-1                 0  
     103  hru103                     hru       103     1.9048E-1                 0  
     104  hru104                     hru       104     1.6667E-1                 0  
     105  hru105                     hru       105     5.4762E-1                 0  
     106  hru106                     hru       106     9.5238E-2                 0  
     107  hru107                     hru       107     5.3125E-1                 0  
     108  hru108                     hru       108     2.5000E-1                 0  
     109  hru109                     hru       109     2.1875E-1                 0  
     110  hru110                     hru       110     2.7650E-1                 0  
     111  hru111                     hru       111     4.8997E-1                 0  
     112  hru112                     hru       112     1.8807E-1                 0  
     113  hru113                     hru       113     4.5451E-2                 0  
     114  hru114                     hru       114     4.0741E-1                 0  
     115  hru115                     hru       115     5.1135E-1                 0  
     116  hru116                     hru       116     8.1243E-2                 0  
     117  hru117                     hru       117     4.0856E-1                 0  
     118  hru118                     hru       118     4.1634E-1                 0  
     119  hru119                     hru       119     8.9494E-2                 0  
     120  hru120                     hru       120     8.5603E-2                 0  
     121  hru121                     hru       121     1.0000E+0                 0  
     122  hru122                     hru       122     1.0000E+0                 0  
     123  hru123                     hru       123     2.7083E-1                 0  
     124  hru124                     hru       124     5.3615E-1                 0  
     125  hru125                     hru       125     1.9301E-1                 0  
     126  hru126                     hru       126     4.6000E-1                 0  
     127  hru127                     hru       127     3.4000E-1                 0  
     128  hru128                     hru       128     3.0000E-2                 0  
     129  hru129                     hru       129     1.2000E-1                 0  
     130  hru130                     hru       130     5.0000E-2                 0  
     131  hru131                     hru       131     8.3099E-1                 0  
     132  hru132                     hru       132     1.6901E-1                 0  
     133  hru133                     hru       133     1.8182E-1                 0  
     134  hru134                     hru       134     8.1818E-1                 0  
     135  hru135                     hru       135     6.7742E-1                 0  
     136  hru136                     hru       136     3.2258E-1                 0  
     137  hru137                     hru       137     6.0000E-1                 0  
     138  hru138                     hru       138     1.0000E-1                 0  
     139  hru139                     hru       139     3.0000E-1                 0  
     140  hru140                     hru       140     2.5000E-1                 0  
     141  hru141                     hru       141     2.5000E-1                 0  
     142  hru142                     hru       142     5.0000E-1                 0  
     143  hru143                     hru       143     3.0000E-1                 0  
     144  hru144                     hru       144     5.0000E-2                 0  
     145  hru145                     hru       145     1.2500E-1                 0  
     146  hru146                     hru       146     4.5000E-1                 0  
     147  hru147                     hru       147     7.5000E-2                 0  
     148  hru148                     hru       148     6.1111E-1                 0  
     149  hru149                     hru       149     3.8889E-1                 0  
     150  hru150                     hru       150     6.9333E-1                 0  
     151  hru151                     hru       151     3.0667E-1                 0  
     152  hru152                     hru       152     5.0000E-1                 0  
     153  hru153                     hru       153     5.0000E-1                 0  
     154  hru154                     hru       154     6.9504E-1                 0  
     155  hru155                     hru       155     3.0496E-1                 0  
     156  hru156                     hru       156     6.1224E-1                 0  
     157  hru157                     hru       157     2.6531E-1                 0  
     158  hru158                     hru       158     1.2245E-1                 0  
     159  hru159                     hru       159     5.7143E-1                 0  
     160  hru160                     hru       160     2.1429E-1                 0  
     161  hru161                     hru       161     2.1429E-1                 0  
     162  hru162                     hru       162     4.1176E-1                 0  
     163  hru163                     hru       163     4.7059E-1                 0  
     164  hru164                     hru       164     1.1765E-1                 0  
     165  hru165                     hru       165     3.9370E-1                 0  
     166  hru166                     hru       166     2.8346E-1                 0  
     167  hru167                     hru       167     3.2283E-1                 0  
     168  hru168                     hru       168     7.1006E-1                 0  
     169  hru169                     hru       169     2.8994E-1                 0  
     170  hru170                     hru       170     6.1165E-1                 0  
     171  hru171                     hru       171     2.2330E-1                 0  
     172  hru172                     hru       172     7.7670E-2                 0  
     173  hru173                     hru       173     8.7379E-2                 0  
     174  hru174                     hru       174     8.2759E-1                 0  
     175  hru175                     hru       175     1.7241E-1                 0  
     176  hru176                     hru       176     1.6279E-1                 0  
     177  hru177                     hru       177     8.3721E-1                 0  
     178  hru178                     hru       178     2.8125E-1                 0  
     179  hru179                     hru       179     3.4375E-1                 0  
     180  hru180                     hru       180     3.7500E-1                 0  
     181  hru181                     hru       181     1.6667E-1                 0  
     182  hru182                     hru       182     6.6667E-1                 0  
     183  hru183                     hru       183     1.6667E-1                 0  
     184  hru184                     hru       184     1.0000E+0                 0  
     185  hru185                     hru       185     1.0000E+0                 0  
     186  hru186                     hru       186     5.5556E-1                 0  
     187  hru187                     hru       187     4.4444E-1                 0  
     188  hru188                     hru       188     1.9231E-1                 0  
     189  hru189                     hru       189     6.5385E-1                 0  
     190  hru190                     hru       190     1.5385E-1                 0  
     191  hru191                     hru       191     4.6875E-1                 0  
     192  hru192                     hru       192     3.7500E-1                 0  
     193  hru193                     hru       193     1.5625E-1                 0  
     194  hru194                     hru       194     1.8605E-1                 0  
     195  hru195                     hru       195     3.7209E-1                 0  
     196  hru196                     hru       196     4.4186E-1                 0  
     197  hru197                     hru       197     4.8529E-1                 0  
     198  hru198                     hru       198     8.0882E-2                 0  
     199  hru199                     hru       199     4.3382E-1                 0  
     200  hru200                     hru       200     1.0000E+0                 0  
     201  hru201                     hru       201     7.1895E-1                 0  
     202  hru202                     hru       202     2.8105E-1                 0  
     203  hru203                     hru       203     1.0000E+0                 0  
     204  hru204                     hru       204     1.0000E+0                 0  
     205  hru205                     hru       205     8.7037E-1                 0  
     206  hru206                     hru       206     1.2963E-1                 0  
     207  hru207                     hru       207     1.0000E+0                 0  
     208  hru208                     hru       208     3.2686E-1                 0  
     209  hru209                     hru       209     5.6389E-1                 0  
     210  hru210                     hru       210     1.0925E-1                 0  
     211  hru211                     hru       211     7.7640E-1                 0  
     212  hru212                     hru       212     2.2360E-1                 0  
     213  hru213                     hru       213     1.0000E+0                 0  
     214  hru214                     hru       214     6.8854E-1                 0  
     215  hru215                     hru       215     9.6075E-2                 0  
     216  hru216                     hru       216     1.8462E-1                 0  
     217  hru217                     hru       217     3.0769E-2                 0  
     218  hru218                     hru       218     2.4000E-1                 0  
     219  hru219                     hru       219     5.8000E-1                 0  
     220  hru220                     hru       220     1.8000E-1                 0  
     221  hru221                     hru       221     1.0000E+0                 0  
     222  hru222                     hru       222     1.0000E+0                 0  
     223  hru223                     hru       223     1.0000E+0                 0  
     224  hru224                     hru       224     1.0000E+0                 0  
     225  hru225                     hru       225     1.7857E-1                 0  
     226  hru226                     hru       226     1.4286E-1                 0  
     227  hru227                     hru       227     6.7857E-1                 0  
     228  hru228                     hru       228     2.2350E-1                 0  
     229  hru229                     hru       229     7.7650E-1                 0  
     230  hru230                     hru       230     1.0000E+0                 0  
     231  hru231                     hru       231     4.6154E-1                 0  
     232  hru232                     hru       232     5.3846E-1                 0  
     233  hru233                     hru       233     1.6667E-1                 0  
     234  hru234                     hru       234     3.3333E-1                 0  
     235  hru235                     hru       235     5.0000E-1                 0  
     236  hru236                     hru       236     4.2515E-1                 0  
     237  hru237                     hru       237     1.6168E-1                 0  
     238  hru238                     hru       238     2.3353E-1                 0  
     239  hru239                     hru       239     1.7964E-1                 0  
     240  hru240                     hru       240     1.4465E-1                 0  
     241  hru241                     hru       241     2.7044E-1                 0  
     242  hru242                     hru       242     1.8239E-1                 0  
     243  hru243                     hru       243     4.6960E-2                 0  
     244  hru244                     hru       244     3.5556E-1                 0  
     245  hru245                     hru       245     4.0909E-1                 0  
     246  hru246                     hru       246     5.9091E-1                 0  
     247  hru247                     hru       247     1.0135E-1                 0  
     248  hru248                     hru       248     1.7568E-1                 0  
     249  hru249                     hru       249     3.7838E-1                 0  
     250  hru250                     hru       250     1.8608E-1                 0  
     251  hru251                     hru       251     1.5851E-1                 0  
     252  hru252                     hru       252     4.5343E-1                 0  
     253  hru253                     hru       253     3.7990E-1                 0  
     254  hru254                     hru       254     1.6667E-1                 0  
     255  hru255                     hru       255     7.8125E-2                 0  
     256  hru256                     hru       256     3.2812E-1                 0  
     257  hru257                     hru       257     3.2812E-1                 0  
     258  hru258                     hru       258     2.6562E-1                 0  
     259  hru259                     hru       259     8.0645E-1                 0  
     260  hru260                     hru       260     1.9355E-1                 0  
     261  hru261                     hru       261     8.5714E-1                 0  
     262  hru262                     hru       262     1.4286E-1                 0  
     263  hru263                     hru       263     1.0714E-1                 0  
     264  hru264                     hru       264     1.6071E-1                 0  
     265  hru265                     hru       265     3.5714E-2                 0  
     266  hru266                     hru       266     3.5714E-1                 0  
     267  hru267                     hru       267     3.3929E-1                 0  
     268  hru268                     hru       268     4.5865E-1                 0  
     269  hru269                     hru       269     5.4135E-1                 0  
     270  hru270                     hru       270     1.0000E+0                 0  
     271  hru271                     hru       271     1.0000E+0                 0  
     272  hru272                     hru       272     3.8462E-1                 0  
     273  hru273                     hru       273     5.1282E-2                 0  
     274  hru274                     hru       274     7.6923E-2                 0  
     275  hru275                     hru       275     1.5385E-1                 0  
     276  hru276                     hru       276     7.6923E-2                 0  
     277  hru277                     hru       277     2.0513E-1                 0  
     278  hru278                     hru       278     5.1282E-2                 0  
     279  hru279                     hru       279     1.0000E+0                 0  
     280  hru280                     hru       280     2.1739E-1                 0  
     281  hru281                     hru       281     5.8137E-1                 0  
     282  hru282                     hru       282     8.9441E-2                 0  
     283  hru283                     hru       283     1.1180E-1                 0  
     284  hru284                     hru       284     6.6845E-1                 0  
     285  hru285                     hru       285     3.3155E-1                 0  
     286  hru286                     hru       286     7.2727E-1                 0  
     287  hru287                     hru       287     2.7273E-1                 0  
     288  hru288                     hru       288     3.0139E-1                 0  
     289  hru289                     hru       289     3.4444E-1                 0  
     290  hru290                     hru       290     3.5417E-1                 0  
     291  hru291                     hru       291     6.2500E-1                 0  
     292  hru292                     hru       292     3.7500E-1                 0  
     293  hru293                     hru       293     9.5238E-2                 0  
     294  hru294                     hru       294     3.3333E-1                 0  
     295  hru295                     hru       295     2.6190E-1                 0  
     296  hru296                     hru       296     3.0952E-1                 0  
     297  hru297                     hru       297     1.0000E+0                 0  
     298  hru298                     hru       298     1.6216E-1                 0  
     299  hru299                     hru       299     8.3784E-1                 0  
     300  hru300                     hru       300     5.6250E-1                 0  
     301  hru301                     hru       301     4.3750E-1                 0  
     302  hru302                     hru       302     1.0000E+0                 0  
     303  hru303                     hru       303     7.1429E-1                 0  
     304  hru304                     hru       304     1.4286E-1                 0  
     305  hru305                     hru       305     1.4286E-1                 0  
     306  hru306                     hru       306     1.3043E-1                 0  
     307  hru307                     hru       307     4.6957E-1                 0  
     308  hru308                     hru       308     3.5000E-1                 0  
     309  hru309                     hru       309     5.0000E-2                 0  
     310  hru310                     hru       310     7.5676E-1                 0  
     311  hru311                     hru       311     2.4324E-1                 0  
     312  hru312                     hru       312     2.3529E-1                 0  
     313  hru313                     hru       313     2.8265E-1                 0  
     314  hru314                     hru       314     3.5974E-2                 0  
     315  hru315                     hru       315     6.3725E-2                 0  
     316  hru316                     hru       316     2.8431E-1                 0  
     317  hru317                     hru       317     4.4118E-2                 0  
     318  hru318                     hru       318     5.3922E-2                 0  
     319  hru319                     hru       319     3.3571E-1                 0  
     320  hru320                     hru       320     6.6429E-1                 0  
     321  hru321                     hru       321     5.9259E-1                 0  
     322  hru322                     hru       322     1.5741E-1                 0  
     323  hru323                     hru       323     2.5000E-1                 0  
     324  hru324                     hru       324     1.1605E-1                 0  
     325  hru325                     hru       325     1.3926E-1                 0  
     326  hru326                     hru       326     7.4468E-1                 0  
     327  hru327                     hru       327     7.0588E-1                 0  
     328  hru328                     hru       328     5.8824E-2                 0  
     329  hru329                     hru       329     1.1765E-1                 0  
     330  hru330                     hru       330     1.1765E-1                 0  
     331  hru331                     hru       331     7.7358E-1                 0  
     332  hru332                     hru       332     2.2642E-1                 0  
     333  hru333                     hru       333     1.0000E+0                 0  
     334  hru334                     hru       334     5.4118E-1                 0  
     335  hru335                     hru       335     3.6471E-1                 0  
     336  hru336                     hru       336     9.4118E-2                 0  
     337  hru337                     hru       337     2.8229E-1                 0  
     338  hru338                     hru       338     4.7771E-1                 0  
     339  hru339                     hru       339     1.0000E-1                 0  
     340  hru340                     hru       340     4.0000E-2                 0  
     341  hru341                     hru       341     1.0000E-1                 0  
     342  hru342                     hru       342     4.3459E-1                 0  
     343  hru343                     hru       343     2.0586E-1                 0  
     344  hru344                     hru       344     1.1985E-1                 0  
     345  hru345                     hru       345     2.3970E-1                 0  
     346  hru346                     hru       346     3.3333E-1                 0  
     347  hru347                     hru       347     6.6667E-1                 0  