slr.cli: Solar radiation file names - file written by SWAT+ editor 2021-01-24 15:51:35.491067
filename
s52931.slr
s52934.slr
s52938.slr
s52941.slr
s52944.slr
s52947.slr
s52950.slr
s53231.slr
s53234.slr
s53238.slr
s53241.slr
s53244.slr
s53247.slr
s53250.slr
