soils.sol: written by SWAT+ editor v1.2.3 on 2021-01-24 15:52
name                            nly           hyd_grp        dp_tot    anion_excl      perc_crk  texture                              dp            bd           awc        soil_k        carbon          clay          silt          sand          rock           alb        usle_k            ec         caco3            ph  
CMdy                              2                 B    1200.00000       0.50000       0.50000  L                          
                                                                                                                               800.00000       1.49290       0.13270       7.97450       1.50000      25.00000      35.00000      40.00000       0.00000       0.21380       0.13840       1.00000       0.00000       0.00000  
                                                                                                                              1200.00000       1.53750       0.12980       6.53060       0.75000      25.00000      35.00000      40.00000       0.00000       0.35810       0.16440       0.00000       0.00000       0.00000  
GLhu                              2                 B    1200.00000       0.50000       0.50000  L                          
                                                                                                                               800.00000       1.22160       0.15150      21.08770       6.00000      25.00000      35.00000      40.00000       0.00000       0.00970       0.12780       1.00000       0.00000       0.00000  
                                                                                                                              1200.00000       1.40310       0.13870      11.45300       3.00000      25.00000      35.00000      40.00000       0.00000       0.07620       0.12790       0.00000       0.00000       0.00000  
LPha                              2                 A    1200.00000       0.50000       0.50000  SL                         
                                                                                                                               300.00000       1.31840       0.09940      95.01290       4.00000       5.00000      25.00000      70.00000       0.00000       0.03830       0.13490       1.00000       0.00000       0.00000  
                                                                                                                              1200.00000       1.46300       0.13470       9.04370       2.00000      25.00000      35.00000      40.00000       0.00000       0.15160       0.13010       0.00000       0.00000       0.00000  
PZpi                              2                 B    1200.00000       0.50000       0.50000  L                          
                                                                                                                               500.00000       1.34290       0.14290      14.24590       4.00000      25.00000      35.00000      40.00000       0.00000       0.03830       0.12780       1.00000       0.00000       0.00000  
                                                                                                                              1200.00000       1.46300       0.13470       9.04370       2.00000      25.00000      35.00000      40.00000       0.00000       0.15160       0.13010       0.00000       0.00000       0.00000  
