tmp.cli: Temperature file names - file written by SWAT+ editor 2021-01-24 15:51:36.762900
filename
t4552.tmp
t4553.tmp
t4596.tmp
t4597.tmp
t4598.tmp
t4599.tmp
t4646.tmp
t4647.tmp
t4648.tmp
t4649.tmp
t4650.tmp
t4651.tmp
t4695.tmp
t4696.tmp
t4697.tmp
t4698.tmp
t4699.tmp
t4700.tmp
t4701.tmp
t4702.tmp
t4703.tmp
t4704.tmp
t4705.tmp
t4706.tmp
t4707.tmp
t4708.tmp
t4753.tmp
t4754.tmp
t4755.tmp
t4756.tmp
t4757.tmp
t4758.tmp
t4759.tmp
t4760.tmp
t4761.tmp
t4762.tmp
t4763.tmp
t4764.tmp
t4765.tmp
t4766.tmp
t4767.tmp
t4768.tmp
t4769.tmp
t4770.tmp
t4816.tmp
t4817.tmp
t4818.tmp
t4819.tmp
t4820.tmp
t4821.tmp
t4822.tmp
t4823.tmp
t4824.tmp
t4825.tmp
t4826.tmp
t4827.tmp
t4828.tmp
t4829.tmp
t4830.tmp
t4831.tmp
t4832.tmp
t4833.tmp
t4834.tmp
t4835.tmp
t4880.tmp
t4881.tmp
t4882.tmp
t4883.tmp
t4884.tmp
t4885.tmp
t4886.tmp
t4887.tmp
t4888.tmp
t4889.tmp
t4890.tmp
t4891.tmp
t4892.tmp
t4893.tmp
t4894.tmp
t4895.tmp
t4896.tmp
t4897.tmp
t4898.tmp
t4899.tmp
t4943.tmp
t4944.tmp
t4945.tmp
t4946.tmp
t4947.tmp
t4948.tmp
t4949.tmp
t4950.tmp
t4951.tmp
t4952.tmp
t4953.tmp
t4954.tmp
t4955.tmp
t4956.tmp
t4957.tmp
t4958.tmp
t4959.tmp
t4960.tmp
t5005.tmp
t5006.tmp
t5007.tmp
t5008.tmp
t5009.tmp
t5010.tmp
t5011.tmp
t5012.tmp
t5013.tmp
t5014.tmp
t5015.tmp
t5016.tmp
t5017.tmp
t5018.tmp
t5019.tmp
t5020.tmp
t5021.tmp
t5022.tmp
t5023.tmp
t5066.tmp
t5067.tmp
t5068.tmp
t5069.tmp
t5070.tmp
t5071.tmp
t5072.tmp
t5073.tmp
t5074.tmp
t5075.tmp
t5076.tmp
t5077.tmp
t5078.tmp
t5079.tmp
t5080.tmp
t5081.tmp
t5082.tmp
t5083.tmp
t5084.tmp
t5085.tmp
t5086.tmp
t5127.tmp
t5128.tmp
t5129.tmp
t5130.tmp
t5131.tmp
t5132.tmp
t5133.tmp
t5134.tmp
t5135.tmp
t5136.tmp
t5137.tmp
t5138.tmp
t5139.tmp
t5140.tmp
t5141.tmp
t5142.tmp
t5143.tmp
t5144.tmp
t5145.tmp
t5146.tmp
t5147.tmp
t5148.tmp
t5149.tmp
t5196.tmp
t5197.tmp
t5198.tmp
t5199.tmp
t5200.tmp
t5201.tmp
t5202.tmp
t5203.tmp
t5204.tmp
t5205.tmp
t5206.tmp
t5207.tmp
t5208.tmp
t5209.tmp
t5210.tmp
t5211.tmp
t5212.tmp
t5213.tmp
t5214.tmp
t5215.tmp
t5216.tmp
t5218.tmp
t5219.tmp
t5220.tmp
t5272.tmp
t5273.tmp
t5274.tmp
t5275.tmp
t5276.tmp
t5277.tmp
t5278.tmp
t5279.tmp
t5280.tmp
t5281.tmp
t5282.tmp
t5283.tmp
t5284.tmp
t5285.tmp
t5286.tmp
t5287.tmp
t5288.tmp
t5289.tmp
t5348.tmp
t5349.tmp
t5350.tmp
t5351.tmp
t5352.tmp
t5353.tmp
t5354.tmp
t5355.tmp
t5356.tmp
t5357.tmp
t5358.tmp
t5359.tmp
t5425.tmp
t5426.tmp
t5427.tmp
t5428.tmp
t5429.tmp
t5430.tmp
t5431.tmp
t5503.tmp
t5504.tmp
t5505.tmp
t5506.tmp
t5507.tmp
t5508.tmp
t5581.tmp
t5582.tmp
t5583.tmp
t5584.tmp
t5585.tmp
t5586.tmp
t5659.tmp
t5660.tmp
t5661.tmp
t5738.tmp
t5739.tmp
t5740.tmp
t5741.tmp
t5818.tmp
t5819.tmp
