topography.hyd: written by SWAT+ editor v1.2.3 on 2021-01-24 15:52
name                       slp       slp_len       lat_len      dist_cha         depos  
topohru001             0.14687      10.00000      10.00000     121.00000       0.00000  
topohru002             0.07028      30.00000      30.00000     121.00000       0.00000  
topohru003             0.13732      10.00000      10.00000     121.00000       0.00000  
topohru004             0.11529      10.00000      10.00000     121.00000       0.00000  
topohru005             0.08768      10.00000      10.00000     121.00000       0.00000  
topohru006             0.17971      10.00000      10.00000     121.00000       0.00000  
topohru007             0.14611      10.00000      10.00000     121.00000       0.00000  
topohru008             0.06295      30.00000      30.00000     121.00000       0.00000  
topohru009             0.16269      10.00000      10.00000     121.00000       0.00000  
topohru010             0.13525      10.00000      10.00000     121.00000       0.00000  
topohru011             0.07418      30.00000      30.00000     121.00000       0.00000  
topohru012             0.16262      10.00000      10.00000     121.00000       0.00000  
topohru013             0.07216      30.00000      30.00000     121.00000       0.00000  
topohru014             0.19754      10.00000      10.00000     121.00000       0.00000  
topohru015             0.13358      10.00000      10.00000     121.00000       0.00000  
topohru016             0.05921      30.00000      30.00000     121.00000       0.00000  
topohru017             0.18798      10.00000      10.00000     121.00000       0.00000  
topohru018             0.18760      10.00000      10.00000     121.00000       0.00000  
topohru019             0.07124      30.00000      30.00000     121.00000       0.00000  
topohru020             0.00387     121.00000     121.00000     121.00000       0.00000  
topohru021             0.15986      10.00000      10.00000     121.00000       0.00000  
topohru022             0.04369      60.00000      60.00000     121.00000       0.00000  
topohru023             0.06385      30.00000      30.00000     121.00000       0.00000  
topohru024             0.15395      10.00000      10.00000     121.00000       0.00000  
topohru025             0.07768      30.00000      30.00000     121.00000       0.00000  
topohru026             0.29021      10.00000      10.00000     121.00000       0.00000  
topohru027             0.34013      10.00000      10.00000     121.00000       0.00000  
topohru028             0.19338      10.00000      10.00000     121.00000       0.00000  
topohru029             0.18590      10.00000      10.00000     121.00000       0.00000  
topohru030             0.05776      30.00000      30.00000     121.00000       0.00000  
topohru031             0.15623      10.00000      10.00000     121.00000       0.00000  
topohru032             0.07324      30.00000      30.00000     121.00000       0.00000  
topohru033             0.16003      10.00000      10.00000     121.00000       0.00000  
topohru034             0.17170      10.00000      10.00000     121.00000       0.00000  
topohru035             0.28255      10.00000      10.00000     121.00000       0.00000  
topohru036             0.24268      10.00000      10.00000     121.00000       0.00000  
topohru037             0.00000     121.00000     121.00000     121.00000       0.00000  
topohru038             0.03394      60.00000      60.00000     121.00000       0.00000  
topohru039             0.25574      10.00000      10.00000     121.00000       0.00000  
topohru040             0.20531      10.00000      10.00000     121.00000       0.00000  
topohru041             0.37929      10.00000      10.00000     121.00000       0.00000  
topohru042             0.05911      30.00000      30.00000     121.00000       0.00000  
topohru043             0.23219      10.00000      10.00000     121.00000       0.00000  
topohru044             0.05750      30.00000      30.00000     121.00000       0.00000  
topohru045             0.00240     121.00000     121.00000     121.00000       0.00000  
topohru046             0.13101      10.00000      10.00000     121.00000       0.00000  
topohru047             0.07980      30.00000      30.00000     121.00000       0.00000  
topohru048             0.07193      30.00000      30.00000     121.00000       0.00000  
topohru049             0.15223      10.00000      10.00000     121.00000       0.00000  
topohru050             0.16442      10.00000      10.00000     121.00000       0.00000  
topohru051             0.07699      30.00000      30.00000     121.00000       0.00000  
topohru052             0.55560      10.00000      10.00000     121.00000       0.00000  
topohru053             0.00160     121.00000     121.00000     121.00000       0.00000  
topohru054             0.07035      30.00000      30.00000     121.00000       0.00000  
topohru055             0.10977      10.00000      10.00000     121.00000       0.00000  
topohru056             0.24809      10.00000      10.00000     121.00000       0.00000  
topohru057             0.06788      30.00000      30.00000     121.00000       0.00000  
topohru058             0.11989      10.00000      10.00000     121.00000       0.00000  
topohru059             0.49392      10.00000      10.00000     121.00000       0.00000  
topohru060             0.00165     121.00000     121.00000     121.00000       0.00000  
topohru061             0.39525      10.00000      10.00000     121.00000       0.00000  
topohru062             0.00212     121.00000     121.00000     121.00000       0.00000  
topohru063             0.22062      10.00000      10.00000     121.00000       0.00000  
topohru064             0.00000     121.00000     121.00000     121.00000       0.00000  
topohru065             0.38252      10.00000      10.00000     121.00000       0.00000  
topohru066             0.29777      10.00000      10.00000     121.00000       0.00000  
topohru067             0.06100      30.00000      30.00000     121.00000       0.00000  
topohru068             0.01093      90.00000      90.00000     121.00000       0.00000  
topohru069             0.27056      10.00000      10.00000     121.00000       0.00000  
topohru070             0.04485      60.00000      60.00000     121.00000       0.00000  
topohru071             0.32754      10.00000      10.00000     121.00000       0.00000  
topohru072             0.20488      10.00000      10.00000     121.00000       0.00000  
topohru073             0.00589     121.00000     121.00000     121.00000       0.00000  
topohru074             0.08000      30.00000      30.00000     121.00000       0.00000  
topohru075             0.22630      10.00000      10.00000     121.00000       0.00000  
topohru076             0.00033     121.00000     121.00000     121.00000       0.00000  
topohru077             0.17237      10.00000      10.00000     121.00000       0.00000  
topohru078             0.05999      30.00000      30.00000     121.00000       0.00000  
topohru079             0.20874      10.00000      10.00000     121.00000       0.00000  
topohru080             0.05826      30.00000      30.00000     121.00000       0.00000  
topohru081             0.00168     121.00000     121.00000     121.00000       0.00000  
topohru082             0.04247      60.00000      60.00000     121.00000       0.00000  
topohru083             0.00005     121.00000     121.00000     121.00000       0.00000  
topohru084             0.00200     121.00000     121.00000     121.00000       0.00000  
topohru085             0.05279      30.00000      30.00000     121.00000       0.00000  
topohru086             0.27415      10.00000      10.00000     121.00000       0.00000  
topohru087             0.00000     121.00000     121.00000     121.00000       0.00000  
topohru088             0.23596      10.00000      10.00000     121.00000       0.00000  
topohru089             0.06900      30.00000      30.00000     121.00000       0.00000  
topohru090             0.29219      10.00000      10.00000     121.00000       0.00000  
topohru091             0.05974      30.00000      30.00000     121.00000       0.00000  
topohru092             0.07204      30.00000      30.00000     121.00000       0.00000  
topohru093             0.12170      10.00000      10.00000     121.00000       0.00000  
topohru094             0.38807      10.00000      10.00000     121.00000       0.00000  
topohru095             0.36729      10.00000      10.00000     121.00000       0.00000  
topohru096             0.19497      10.00000      10.00000     121.00000       0.00000  
topohru097             0.17396      10.00000      10.00000     121.00000       0.00000  
topohru098             0.07488      30.00000      30.00000     121.00000       0.00000  
topohru099             0.06965      30.00000      30.00000     121.00000       0.00000  
topohru100             0.18613      10.00000      10.00000     121.00000       0.00000  
topohru101             0.40366      10.00000      10.00000     121.00000       0.00000  
topohru102             0.19961      10.00000      10.00000     121.00000       0.00000  
topohru103             0.12085      10.00000      10.00000     121.00000       0.00000  
topohru104             0.07717      30.00000      30.00000     121.00000       0.00000  
topohru105             0.26059      10.00000      10.00000     121.00000       0.00000  
topohru106             0.05760      30.00000      30.00000     121.00000       0.00000  
topohru107             0.25583      10.00000      10.00000     121.00000       0.00000  
topohru108             0.04675      60.00000      60.00000     121.00000       0.00000  
topohru109             0.00286     121.00000     121.00000     121.00000       0.00000  
topohru110             0.71487      10.00000      10.00000     121.00000       0.00000  
topohru111             0.45738      10.00000      10.00000     121.00000       0.00000  
topohru112             0.52756      10.00000      10.00000     121.00000       0.00000  
topohru113             0.00461     121.00000     121.00000     121.00000       0.00000  
topohru114             0.57947      10.00000      10.00000     121.00000       0.00000  
topohru115             0.32469      10.00000      10.00000     121.00000       0.00000  
topohru116             0.05030      30.00000      30.00000     121.00000       0.00000  
topohru117             0.38156      10.00000      10.00000     121.00000       0.00000  
topohru118             0.30188      10.00000      10.00000     121.00000       0.00000  
topohru119             0.05777      30.00000      30.00000     121.00000       0.00000  
topohru120             0.00555     121.00000     121.00000     121.00000       0.00000  
topohru121             0.30159      10.00000      10.00000     121.00000       0.00000  
topohru122             0.58334      10.00000      10.00000     121.00000       0.00000  
topohru123             0.28781      10.00000      10.00000     121.00000       0.00000  
topohru124             0.34125      10.00000      10.00000     121.00000       0.00000  
topohru125             0.00132     121.00000     121.00000     121.00000       0.00000  
topohru126             0.20952      10.00000      10.00000     121.00000       0.00000  
topohru127             0.21566      10.00000      10.00000     121.00000       0.00000  
topohru128             0.05701      30.00000      30.00000     121.00000       0.00000  
topohru129             0.33594      10.00000      10.00000     121.00000       0.00000  
topohru130             0.00240     121.00000     121.00000     121.00000       0.00000  
topohru131             0.31050      10.00000      10.00000     121.00000       0.00000  
topohru132             0.00141     121.00000     121.00000     121.00000       0.00000  
topohru133             0.00497     121.00000     121.00000     121.00000       0.00000  
topohru134             0.45522      10.00000      10.00000     121.00000       0.00000  
topohru135             0.29013      10.00000      10.00000     121.00000       0.00000  
topohru136             0.00000     121.00000     121.00000     121.00000       0.00000  
topohru137             0.27831      10.00000      10.00000     121.00000       0.00000  
topohru138             0.08200      10.00000      10.00000     121.00000       0.00000  
topohru139             0.01024      90.00000      90.00000     121.00000       0.00000  
topohru140             0.30492      10.00000      10.00000     121.00000       0.00000  
topohru141             0.02400      90.00000      90.00000     121.00000       0.00000  
topohru142             0.00000     121.00000     121.00000     121.00000       0.00000  
topohru143             0.00000     121.00000     121.00000     121.00000       0.00000  
topohru144             0.30000      10.00000      10.00000     121.00000       0.00000  
topohru145             0.00512     121.00000     121.00000     121.00000       0.00000  
topohru146             0.23383      10.00000      10.00000     121.00000       0.00000  
topohru147             0.05267      30.00000      30.00000     121.00000       0.00000  
topohru148             0.25950      10.00000      10.00000     121.00000       0.00000  
topohru149             0.00000     121.00000     121.00000     121.00000       0.00000  
topohru150             0.15103      10.00000      10.00000     121.00000       0.00000  
topohru151             0.06623      30.00000      30.00000     121.00000       0.00000  
topohru152             0.06647      30.00000      30.00000     121.00000       0.00000  
topohru153             0.11335      10.00000      10.00000     121.00000       0.00000  
topohru154             0.04885      60.00000      60.00000     121.00000       0.00000  
topohru155             0.00959     121.00000     121.00000     121.00000       0.00000  
topohru156             0.04887      60.00000      60.00000     121.00000       0.00000  
topohru157             0.00406     121.00000     121.00000     121.00000       0.00000  
topohru158             0.15327      10.00000      10.00000     121.00000       0.00000  
topohru159             0.13646      10.00000      10.00000     121.00000       0.00000  
topohru160             0.04229      60.00000      60.00000     121.00000       0.00000  
topohru161             0.00694     121.00000     121.00000     121.00000       0.00000  
topohru162             0.05204      30.00000      30.00000     121.00000       0.00000  
topohru163             0.00150     121.00000     121.00000     121.00000       0.00000  
topohru164             0.09979      10.00000      10.00000     121.00000       0.00000  
topohru165             0.06140      30.00000      30.00000     121.00000       0.00000  
topohru166             0.00250     121.00000     121.00000     121.00000       0.00000  
topohru167             0.14656      10.00000      10.00000     121.00000       0.00000  
topohru168             0.05369      30.00000      30.00000     121.00000       0.00000  
topohru169             0.11151      10.00000      10.00000     121.00000       0.00000  
topohru170             0.20573      10.00000      10.00000     121.00000       0.00000  
topohru171             0.12597      10.00000      10.00000     121.00000       0.00000  
topohru172             0.05000      30.00000      30.00000     121.00000       0.00000  
topohru173             0.00779     121.00000     121.00000     121.00000       0.00000  
topohru174             0.22551      10.00000      10.00000     121.00000       0.00000  
topohru175             0.00427     121.00000     121.00000     121.00000       0.00000  
topohru176             0.05199      30.00000      30.00000     121.00000       0.00000  
topohru177             0.15949      10.00000      10.00000     121.00000       0.00000  
topohru178             0.21413      10.00000      10.00000     121.00000       0.00000  
topohru179             0.04266      60.00000      60.00000     121.00000       0.00000  
topohru180             0.00967     121.00000     121.00000     121.00000       0.00000  
topohru181             0.27365      10.00000      10.00000     121.00000       0.00000  
topohru182             0.00050     121.00000     121.00000     121.00000       0.00000  
topohru183             0.03200      60.00000      60.00000     121.00000       0.00000  
topohru184             0.01281      90.00000      90.00000     121.00000       0.00000  
topohru185             0.00200     121.00000     121.00000     121.00000       0.00000  
topohru186             0.00578     121.00000     121.00000     121.00000       0.00000  
topohru187             0.04225      60.00000      60.00000     121.00000       0.00000  
topohru188             0.01287      90.00000      90.00000     121.00000       0.00000  
topohru189             0.05424      30.00000      30.00000     121.00000       0.00000  
topohru190             0.13659      10.00000      10.00000     121.00000       0.00000  
topohru191             0.00501     121.00000     121.00000     121.00000       0.00000  
topohru192             0.04555      60.00000      60.00000     121.00000       0.00000  
topohru193             0.16197      10.00000      10.00000     121.00000       0.00000  
topohru194             0.00780     121.00000     121.00000     121.00000       0.00000  
topohru195             0.05076      30.00000      30.00000     121.00000       0.00000  
topohru196             0.14705      10.00000      10.00000     121.00000       0.00000  
topohru197             0.26906      10.00000      10.00000     121.00000       0.00000  
topohru198             0.06873      30.00000      30.00000     121.00000       0.00000  
topohru199             0.31579      10.00000      10.00000     121.00000       0.00000  
topohru200             0.40513      10.00000      10.00000     121.00000       0.00000  
topohru201             0.46450      10.00000      10.00000     121.00000       0.00000  
topohru202             0.93589      10.00000      10.00000     121.00000       0.00000  
topohru203             0.52819      10.00000      10.00000     121.00000       0.00000  
topohru204             0.37026      10.00000      10.00000     121.00000       0.00000  
topohru205             0.28727      10.00000      10.00000     121.00000       0.00000  
topohru206             0.16731      10.00000      10.00000     121.00000       0.00000  
topohru207             0.37029      10.00000      10.00000     121.00000       0.00000  
topohru208             0.27942      10.00000      10.00000     121.00000       0.00000  
topohru209             0.32928      10.00000      10.00000     121.00000       0.00000  
topohru210             0.05052      30.00000      30.00000     121.00000       0.00000  
topohru211             0.42268      10.00000      10.00000     121.00000       0.00000  
topohru212             0.50650      10.00000      10.00000     121.00000       0.00000  
topohru213             0.45725      10.00000      10.00000     121.00000       0.00000  
topohru214             0.33074      10.00000      10.00000     121.00000       0.00000  
topohru215             0.05810      30.00000      30.00000     121.00000       0.00000  
topohru216             0.30718      10.00000      10.00000     121.00000       0.00000  
topohru217             0.05402      30.00000      30.00000     121.00000       0.00000  
topohru218             0.06720      30.00000      30.00000     121.00000       0.00000  
topohru219             0.27375      10.00000      10.00000     121.00000       0.00000  
topohru220             0.00837     121.00000     121.00000     121.00000       0.00000  
topohru221             0.66921      10.00000      10.00000     121.00000       0.00000  
topohru222             0.56167      10.00000      10.00000     121.00000       0.00000  
topohru223             0.44732      10.00000      10.00000     121.00000       0.00000  
topohru224             0.67101      10.00000      10.00000     121.00000       0.00000  
topohru225             0.16156      10.00000      10.00000     121.00000       0.00000  
topohru226             0.06478      30.00000      30.00000     121.00000       0.00000  
topohru227             0.35349      10.00000      10.00000     121.00000       0.00000  
topohru228             0.71607      10.00000      10.00000     121.00000       0.00000  
topohru229             0.47365      10.00000      10.00000     121.00000       0.00000  
topohru230             0.32840      10.00000      10.00000     121.00000       0.00000  
topohru231             0.00864     121.00000     121.00000     121.00000       0.00000  
topohru232             0.04986      60.00000      60.00000     121.00000       0.00000  
topohru233             0.11952      10.00000      10.00000     121.00000       0.00000  
topohru234             0.04347      60.00000      60.00000     121.00000       0.00000  
topohru235             0.01201      90.00000      90.00000     121.00000       0.00000  
topohru236             0.05001      30.00000      30.00000     121.00000       0.00000  
topohru237             0.01230      90.00000      90.00000     121.00000       0.00000  
topohru238             0.12268      10.00000      10.00000     121.00000       0.00000  
topohru239             0.04396      60.00000      60.00000     121.00000       0.00000  
topohru240             0.01003      90.00000      90.00000     121.00000       0.00000  
topohru241             0.04372      60.00000      60.00000     121.00000       0.00000  
topohru242             0.20322      10.00000      10.00000     121.00000       0.00000  
topohru243             0.05142      30.00000      30.00000     121.00000       0.00000  
topohru244             0.24766      10.00000      10.00000     121.00000       0.00000  
topohru245             0.01232      90.00000      90.00000     121.00000       0.00000  
topohru246             0.02863      90.00000      90.00000     121.00000       0.00000  
topohru247             0.01357      90.00000      90.00000     121.00000       0.00000  
topohru248             0.04384      60.00000      60.00000     121.00000       0.00000  
topohru249             0.15133      10.00000      10.00000     121.00000       0.00000  
topohru250             0.13926      10.00000      10.00000     121.00000       0.00000  
topohru251             0.06974      30.00000      30.00000     121.00000       0.00000  
topohru252             0.05950      30.00000      30.00000     121.00000       0.00000  
topohru253             0.12969      10.00000      10.00000     121.00000       0.00000  
topohru254             0.05726      30.00000      30.00000     121.00000       0.00000  
topohru255             0.01456      90.00000      90.00000     121.00000       0.00000  
topohru256             0.05646      30.00000      30.00000     121.00000       0.00000  
topohru257             0.12830      10.00000      10.00000     121.00000       0.00000  
topohru258             0.05782      30.00000      30.00000     121.00000       0.00000  
topohru259             0.05719      30.00000      30.00000     121.00000       0.00000  
topohru260             0.10186      10.00000      10.00000     121.00000       0.00000  
topohru261             0.05588      30.00000      30.00000     121.00000       0.00000  
topohru262             0.10560      10.00000      10.00000     121.00000       0.00000  
topohru263             0.10300      10.00000      10.00000     121.00000       0.00000  
topohru264             0.05900      30.00000      30.00000     121.00000       0.00000  
topohru265             0.01083      90.00000      90.00000     121.00000       0.00000  
topohru266             0.10726      10.00000      10.00000     121.00000       0.00000  
topohru267             0.07573      30.00000      30.00000     121.00000       0.00000  
topohru268             0.06763      30.00000      30.00000     121.00000       0.00000  
topohru269             0.13561      10.00000      10.00000     121.00000       0.00000  
topohru270             0.15918      10.00000      10.00000     121.00000       0.00000  
topohru271             0.04203      60.00000      60.00000     121.00000       0.00000  
topohru272             0.04592      60.00000      60.00000     121.00000       0.00000  
topohru273             0.01507      90.00000      90.00000     121.00000       0.00000  
topohru274             0.10747      10.00000      10.00000     121.00000       0.00000  
topohru275             0.06504      30.00000      30.00000     121.00000       0.00000  
topohru276             0.09907      10.00000      10.00000     121.00000       0.00000  
topohru277             0.04445      60.00000      60.00000     121.00000       0.00000  
topohru278             0.13781      10.00000      10.00000     121.00000       0.00000  
topohru279             0.05048      30.00000      30.00000     121.00000       0.00000  
topohru280             0.04729      60.00000      60.00000     121.00000       0.00000  
topohru281             0.04957      60.00000      60.00000     121.00000       0.00000  
topohru282             0.00583     121.00000     121.00000     121.00000       0.00000  
topohru283             0.11120      10.00000      10.00000     121.00000       0.00000  
topohru284             0.19800      10.00000      10.00000     121.00000       0.00000  
topohru285             0.30462      10.00000      10.00000     121.00000       0.00000  
topohru286             0.05160      30.00000      30.00000     121.00000       0.00000  
topohru287             0.12230      10.00000      10.00000     121.00000       0.00000  
topohru288             0.05950      30.00000      30.00000     121.00000       0.00000  
topohru289             0.14866      10.00000      10.00000     121.00000       0.00000  
topohru290             0.16421      10.00000      10.00000     121.00000       0.00000  
topohru291             0.05074      30.00000      30.00000     121.00000       0.00000  
topohru292             0.10259      10.00000      10.00000     121.00000       0.00000  
topohru293             0.07320      30.00000      30.00000     121.00000       0.00000  
topohru294             0.19789      10.00000      10.00000     121.00000       0.00000  
topohru295             0.29361      10.00000      10.00000     121.00000       0.00000  
topohru296             0.27454      10.00000      10.00000     121.00000       0.00000  
topohru297             0.07168      30.00000      30.00000     121.00000       0.00000  
topohru298             0.07473      30.00000      30.00000     121.00000       0.00000  
topohru299             0.21401      10.00000      10.00000     121.00000       0.00000  
topohru300             0.21563      10.00000      10.00000     121.00000       0.00000  
topohru301             0.34676      10.00000      10.00000     121.00000       0.00000  
topohru302             0.21623      10.00000      10.00000     121.00000       0.00000  
topohru303             0.00000     121.00000     121.00000     121.00000       0.00000  
topohru304             0.05400      30.00000      30.00000     121.00000       0.00000  
topohru305             0.25753      10.00000      10.00000     121.00000       0.00000  
topohru306             0.00000     121.00000     121.00000     121.00000       0.00000  
topohru307             0.22616      10.00000      10.00000     121.00000       0.00000  
topohru308             0.21071      10.00000      10.00000     121.00000       0.00000  
topohru309             0.17901      10.00000      10.00000     121.00000       0.00000  
topohru310             0.19476      10.00000      10.00000     121.00000       0.00000  
topohru311             0.14238      10.00000      10.00000     121.00000       0.00000  
topohru312             0.20568      10.00000      10.00000     121.00000       0.00000  
topohru313             0.18536      10.00000      10.00000     121.00000       0.00000  
topohru314             0.06575      30.00000      30.00000     121.00000       0.00000  
topohru315             0.23957      10.00000      10.00000     121.00000       0.00000  
topohru316             0.19649      10.00000      10.00000     121.00000       0.00000  
topohru317             0.06189      30.00000      30.00000     121.00000       0.00000  
topohru318             0.00521     121.00000     121.00000     121.00000       0.00000  
topohru319             0.17430      10.00000      10.00000     121.00000       0.00000  
topohru320             0.16808      10.00000      10.00000     121.00000       0.00000  
topohru321             0.27042      10.00000      10.00000     121.00000       0.00000  
topohru322             0.05701      30.00000      30.00000     121.00000       0.00000  
topohru323             0.00129     121.00000     121.00000     121.00000       0.00000  
topohru324             0.00000     121.00000     121.00000     121.00000       0.00000  
topohru325             0.25660      10.00000      10.00000     121.00000       0.00000  
topohru326             0.25917      10.00000      10.00000     121.00000       0.00000  
topohru327             0.32673      10.00000      10.00000     121.00000       0.00000  
topohru328             0.21200      10.00000      10.00000     121.00000       0.00000  
topohru329             0.05141      30.00000      30.00000     121.00000       0.00000  
topohru330             0.00000     121.00000     121.00000     121.00000       0.00000  
topohru331             0.73029      10.00000      10.00000     121.00000       0.00000  