weather-sta.cli: written by SWAT+ editor v1.2.3 on 2021-01-24 15:52
name                           wgn                        pcp                        tmp                        slr                        hmd                        wnd           wnd_dir          atmo_dep  
sta5257n403w               526n41w                  p5818.pcp                  t5818.tmp                 s52941.slr                 r52941.hmd                  w5818.wnd              null              null  
sta5258n396w               526n41w                  p5819.pcp                  t5819.tmp                 s52941.slr                 r52941.hmd                  w5819.wnd              null              null  
sta5262n388w               526n38w                  p5741.pcp                  t5741.tmp                 s52938.slr                 r52938.hmd                  w5741.wnd              null              null  
sta5262n396w               526n41w                  p5740.pcp                  t5740.tmp                 s52941.slr                 r52941.hmd                  w5740.wnd              null              null  
sta5262n403w               526n41w                  p5739.pcp                  t5739.tmp                 s52941.slr                 r52941.hmd                  w5739.wnd              null              null  
sta5262n410w               526n41w                  p5738.pcp                  t5738.tmp                 s52941.slr                 r52941.hmd                  w5738.wnd              null              null  
sta5266n396w               526n41w                  p5660.pcp                  t5660.tmp                 s52941.slr                 r52941.hmd                  w5660.wnd              null              null  
sta5266n403w               526n41w                  p5659.pcp                  t5659.tmp                 s52941.slr                 r52941.hmd                  w5659.wnd              null              null  
sta5267n388w               526n38w                  p5661.pcp                  t5661.tmp                 s52938.slr                 r52938.hmd                  w5661.wnd              null              null  
sta5271n366w               526n38w                  p5586.pcp                  t5586.tmp                 s52938.slr                 r52938.hmd                  w5586.wnd              null              null  
sta5271n374w               526n38w                  p5585.pcp                  t5585.tmp                 s52938.slr                 r52938.hmd                  w5585.wnd              null              null  
sta5271n381w               526n38w                  p5584.pcp                  t5584.tmp                 s52938.slr                 r52938.hmd                  w5584.wnd              null              null  
sta5271n389w               526n38w                  p5583.pcp                  t5583.tmp                 s52938.slr                 r52938.hmd                  w5583.wnd              null              null  
sta5271n396w               526n41w                  p5582.pcp                  t5582.tmp                 s52941.slr                 r52941.hmd                  w5582.wnd              null              null  
sta5271n403w               526n41w                  p5581.pcp                  t5581.tmp                 s52941.slr                 r52941.hmd                  w5581.wnd              null              null  
sta5275n404w               526n41w                  p5503.pcp                  t5503.tmp                 s52941.slr                 r52941.hmd                  w5503.wnd              null              null  
sta5276n367w               526n38w                  p5508.pcp                  t5508.tmp                 s52938.slr                 r52938.hmd                  w5508.wnd              null              null  
sta5276n374w               526n38w                  p5507.pcp                  t5507.tmp                 s52938.slr                 r52938.hmd                  w5507.wnd              null              null  
sta5276n382w               526n38w                  p5506.pcp                  t5506.tmp                 s52938.slr                 r52938.hmd                  w5506.wnd              null              null  
sta5276n389w               526n38w                  p5505.pcp                  t5505.tmp                 s52938.slr                 r52938.hmd                  w5505.wnd              null              null  
sta5276n396w               526n41w                  p5504.pcp                  t5504.tmp                 s52941.slr                 r52941.hmd                  w5504.wnd              null              null  
sta5280n367w               529n38w                  p5431.pcp                  t5431.tmp                 s52938.slr                 r52938.hmd                  w5431.wnd              null              null  
sta5280n374w               529n38w                  p5430.pcp                  t5430.tmp                 s52938.slr                 r52938.hmd                  w5430.wnd              null              null  
sta5280n382w               529n38w                  p5429.pcp                  t5429.tmp                 s52938.slr                 r52938.hmd                  w5429.wnd              null              null  
sta5280n389w               529n38w                  p5428.pcp                  t5428.tmp                 s52938.slr                 r52938.hmd                  w5428.wnd              null              null  
sta5280n396w               529n41w                  p5427.pcp                  t5427.tmp                 s52941.slr                 r52941.hmd                  w5427.wnd              null              null  
sta5280n404w               529n41w                  p5426.pcp                  t5426.tmp                 s52941.slr                 r52941.hmd                  w5426.wnd              null              null  
sta5280n411w               529n41w                  p5425.pcp                  t5425.tmp                 s52941.slr                 r52941.hmd                  w5425.wnd              null              null  
sta5283n456w               529n47w                  p5350.pcp                  t5350.tmp                 s52947.slr                 r52947.hmd                  w5350.wnd              null              null  
sta5283n463w               529n47w                  p5349.pcp                  t5349.tmp                 s52947.slr                 r52947.hmd                  w5349.wnd              null              null  
sta5283n471w               529n47w                  p5348.pcp                  t5348.tmp                 s52947.slr                 r52947.hmd                  w5348.wnd              null              null  
sta5284n397w               529n41w                  p5353.pcp                  t5353.tmp                 s52941.slr                 r52941.hmd                  w5353.wnd              null              null  
sta5284n404w               529n41w                  p5352.pcp                  t5352.tmp                 s52941.slr                 r52941.hmd                  w5352.wnd              null              null  
sta5284n412w               529n41w                  p5351.pcp                  t5351.tmp                 s52941.slr                 r52941.hmd                  w5351.wnd              null              null  
sta5285n352w               529n38w                  p5359.pcp                  t5359.tmp                 s52934.slr                 r52934.hmd                  w5359.wnd              null              null  
sta5285n360w               529n38w                  p5358.pcp                  t5358.tmp                 s52938.slr                 r52938.hmd                  w5358.wnd              null              null  
sta5285n367w               529n38w                  p5357.pcp                  t5357.tmp                 s52938.slr                 r52938.hmd                  w5357.wnd              null              null  
sta5285n374w               529n38w                  p5356.pcp                  t5356.tmp                 s52938.slr                 r52938.hmd                  w5356.wnd              null              null  
sta5285n382w               529n38w                  p5355.pcp                  t5355.tmp                 s52938.slr                 r52938.hmd                  w5355.wnd              null              null  
sta5285n389w               529n38w                  p5354.pcp                  t5354.tmp                 s52938.slr                 r52938.hmd                  w5354.wnd              null              null  
sta5288n441w               529n44w                  p5275.pcp                  t5275.tmp                 s52944.slr                 r52944.hmd                  w5275.wnd              null              null  
sta5288n449w               529n44w                  p5274.pcp                  t5274.tmp                 s52944.slr                 r52944.hmd                  w5274.wnd              null              null  
sta5288n456w               529n47w                  p5273.pcp                  t5273.tmp                 s52947.slr                 r52947.hmd                  w5273.wnd              null              null  
sta5288n464w               529n47w                  p5272.pcp                  t5272.tmp                 s52947.slr                 r52947.hmd                  w5272.wnd              null              null  
sta5289n367w               529n38w                  p5282.pcp                  t5282.tmp                 s52938.slr                 r52938.hmd                  w5282.wnd              null              null  
sta5289n375w               529n38w                  p5281.pcp                  t5281.tmp                 s52938.slr                 r52938.hmd                  w5281.wnd              null              null  
sta5289n382w               529n38w                  p5280.pcp                  t5280.tmp                 s52938.slr                 r52938.hmd                  w5280.wnd              null              null  
sta5289n389w               529n38w                  p5279.pcp                  t5279.tmp                 s52938.slr                 r52938.hmd                  w5279.wnd              null              null  
sta5289n397w               529n41w                  p5278.pcp                  t5278.tmp                 s52941.slr                 r52941.hmd                  w5278.wnd              null              null  
sta5289n404w               529n41w                  p5277.pcp                  t5277.tmp                 s52941.slr                 r52941.hmd                  w5277.wnd              null              null  
sta5289n412w               529n41w                  p5276.pcp                  t5276.tmp                 s52941.slr                 r52941.hmd                  w5276.wnd              null              null  
sta5290n315w               529n38w                  p5289.pcp                  t5289.tmp                 s52931.slr                 r52931.hmd                  w5289.wnd              null              null  
sta5290n323w               529n38w                  p5288.pcp                  t5288.tmp                 s52931.slr                 r52931.hmd                  w5288.wnd              null              null  
sta5290n330w               529n38w                  p5287.pcp                  t5287.tmp                 s52934.slr                 r52934.hmd                  w5287.wnd              null              null  
sta5290n338w               529n38w                  p5286.pcp                  t5286.tmp                 s52934.slr                 r52934.hmd                  w5286.wnd              null              null  
sta5290n345w               529n38w                  p5285.pcp                  t5285.tmp                 s52934.slr                 r52934.hmd                  w5285.wnd              null              null  
sta5290n352w               529n38w                  p5284.pcp                  t5284.tmp                 s52934.slr                 r52934.hmd                  w5284.wnd              null              null  
sta5290n360w               529n38w                  p5283.pcp                  t5283.tmp                 s52938.slr                 r52938.hmd                  w5283.wnd              null              null  
sta5292n312w               529n38w                  p5289.pcp                  t5289.tmp                 s52931.slr                 r52931.hmd                  w5289.wnd              null              null  
sta5292n344w               529n38w                  p5211.pcp                  t5211.tmp                 s52934.slr                 r52934.hmd                  w5211.wnd              null              null  
sta5292n375w               529n38w                  p5207.pcp                  t5207.tmp                 s52938.slr                 r52938.hmd                  w5207.wnd              null              null  
sta5292n406w               529n41w                  p5203.pcp                  t5203.tmp                 s52941.slr                 r52941.hmd                  w5203.wnd              null              null  
sta5292n438w               529n44w                  p5199.pcp                  t5199.tmp                 s52944.slr                 r52944.hmd                  w5199.wnd              null              null  
sta5292n449w               529n44w                  p5197.pcp                  t5197.tmp                 s52944.slr                 r52944.hmd                  w5197.wnd              null              null  
sta5292n457w               529n47w                  p5196.pcp                  t5196.tmp                 s52947.slr                 r52947.hmd                  w5196.wnd              null              null  
sta5292n469w               529n47w                  p5272.pcp                  t5272.tmp                 s52947.slr                 r52947.hmd                  w5272.wnd              null              null  
sta5292n500w               529n47w                  p5348.pcp                  t5348.tmp                 s52950.slr                 r52950.hmd                  w5348.wnd              null              null  
sta5293n397w               529n41w                  p5204.pcp                  t5204.tmp                 s52941.slr                 r52941.hmd                  w5204.wnd              null              null  
sta5293n404w               529n41w                  p5203.pcp                  t5203.tmp                 s52941.slr                 r52941.hmd                  w5203.wnd              null              null  
sta5293n412w               529n41w                  p5202.pcp                  t5202.tmp                 s52941.slr                 r52941.hmd                  w5202.wnd              null              null  
sta5293n419w               529n41w                  p5201.pcp                  t5201.tmp                 s52941.slr                 r52941.hmd                  w5201.wnd              null              null  
sta5293n427w               529n44w                  p5200.pcp                  t5200.tmp                 s52944.slr                 r52944.hmd                  w5200.wnd              null              null  
sta5293n434w               529n44w                  p5199.pcp                  t5199.tmp                 s52944.slr                 r52944.hmd                  w5199.wnd              null              null  
sta5293n442w               529n44w                  p5198.pcp                  t5198.tmp                 s52944.slr                 r52944.hmd                  w5198.wnd              null              null  
sta5294n315w               529n38w                  p5215.pcp                  t5215.tmp                 s52931.slr                 r52931.hmd                  w5215.wnd              null              null  
sta5294n323w               529n38w                  p5214.pcp                  t5214.tmp                 s52931.slr                 r52931.hmd                  w5214.wnd              null              null  
sta5294n330w               529n38w                  p5213.pcp                  t5213.tmp                 s52934.slr                 r52934.hmd                  w5213.wnd              null              null  
sta5294n338w               529n38w                  p5212.pcp                  t5212.tmp                 s52934.slr                 r52934.hmd                  w5212.wnd              null              null  
sta5294n345w               529n38w                  p5211.pcp                  t5211.tmp                 s52934.slr                 r52934.hmd                  w5211.wnd              null              null  
sta5294n352w               529n38w                  p5210.pcp                  t5210.tmp                 s52934.slr                 r52934.hmd                  w5210.wnd              null              null  
sta5294n360w               529n38w                  p5209.pcp                  t5209.tmp                 s52938.slr                 r52938.hmd                  w5209.wnd              null              null  
sta5294n367w               529n38w                  p5208.pcp                  t5208.tmp                 s52938.slr                 r52938.hmd                  w5208.wnd              null              null  
sta5294n375w               529n38w                  p5207.pcp                  t5207.tmp                 s52938.slr                 r52938.hmd                  w5207.wnd              null              null  
sta5294n382w               529n38w                  p5206.pcp                  t5206.tmp                 s52938.slr                 r52938.hmd                  w5206.wnd              null              null  
sta5294n390w               529n38w                  p5205.pcp                  t5205.tmp                 s52938.slr                 r52938.hmd                  w5205.wnd              null              null  
sta5295n278w               529n38w                  p5220.pcp                  t5220.tmp                 s52931.slr                 r52931.hmd                  w5220.wnd              null              null  
sta5295n286w               529n38w                  p5219.pcp                  t5219.tmp                 s52931.slr                 r52931.hmd                  w5219.wnd              null              null  
sta5295n293w               529n38w                  p5218.pcp                  t5218.tmp                 s52931.slr                 r52931.hmd                  w5218.wnd              null              null  
sta5295n308w               529n38w                  p5216.pcp                  t5216.tmp                 s52931.slr                 r52931.hmd                  w5216.wnd              null              null  
sta5297n427w               529n44w                  p5129.pcp                  t5129.tmp                 s52944.slr                 r52944.hmd                  w5129.wnd              null              null  
sta5297n434w               529n44w                  p5128.pcp                  t5128.tmp                 s52944.slr                 r52944.hmd                  w5128.wnd              null              null  
sta5297n442w               529n44w                  p5127.pcp                  t5127.tmp                 s52944.slr                 r52944.hmd                  w5127.wnd              null              null  
sta5298n360w               529n38w                  p5138.pcp                  t5138.tmp                 s52938.slr                 r52938.hmd                  w5138.wnd              null              null  
sta5298n368w               529n38w                  p5137.pcp                  t5137.tmp                 s52938.slr                 r52938.hmd                  w5137.wnd              null              null  
sta5298n375w               529n38w                  p5136.pcp                  t5136.tmp                 s52938.slr                 r52938.hmd                  w5136.wnd              null              null  
sta5298n382w               529n38w                  p5135.pcp                  t5135.tmp                 s52938.slr                 r52938.hmd                  w5135.wnd              null              null  
sta5298n390w               529n38w                  p5134.pcp                  t5134.tmp                 s52938.slr                 r52938.hmd                  w5134.wnd              null              null  
sta5298n397w               529n41w                  p5133.pcp                  t5133.tmp                 s52941.slr                 r52941.hmd                  w5133.wnd              null              null  
sta5298n405w               529n41w                  p5132.pcp                  t5132.tmp                 s52941.slr                 r52941.hmd                  w5132.wnd              null              null  
sta5298n412w               529n41w                  p5131.pcp                  t5131.tmp                 s52941.slr                 r52941.hmd                  w5131.wnd              null              null  
sta5298n420w               529n41w                  p5130.pcp                  t5130.tmp                 s52941.slr                 r52941.hmd                  w5130.wnd              null              null  
sta5299n278w               529n38w                  p5149.pcp                  t5149.tmp                 s52931.slr                 r52931.hmd                  w5149.wnd              null              null  
sta5299n286w               529n38w                  p5148.pcp                  t5148.tmp                 s52931.slr                 r52931.hmd                  w5148.wnd              null              null  
sta5299n293w               529n38w                  p5147.pcp                  t5147.tmp                 s52931.slr                 r52931.hmd                  w5147.wnd              null              null  
sta5299n300w               529n38w                  p5146.pcp                  t5146.tmp                 s52931.slr                 r52931.hmd                  w5146.wnd              null              null  
sta5299n308w               529n38w                  p5145.pcp                  t5145.tmp                 s52931.slr                 r52931.hmd                  w5145.wnd              null              null  
sta5299n315w               529n38w                  p5144.pcp                  t5144.tmp                 s52931.slr                 r52931.hmd                  w5144.wnd              null              null  
sta5299n323w               529n38w                  p5143.pcp                  t5143.tmp                 s52931.slr                 r52931.hmd                  w5143.wnd              null              null  
sta5299n330w               529n38w                  p5142.pcp                  t5142.tmp                 s52934.slr                 r52934.hmd                  w5142.wnd              null              null  
sta5299n338w               529n38w                  p5141.pcp                  t5141.tmp                 s52934.slr                 r52934.hmd                  w5141.wnd              null              null  
sta5299n345w               529n38w                  p5140.pcp                  t5140.tmp                 s52934.slr                 r52934.hmd                  w5140.wnd              null              null  
sta5299n353w               529n38w                  p5139.pcp                  t5139.tmp                 s52934.slr                 r52934.hmd                  w5139.wnd              null              null  
sta5302n390w               529n38w                  p5072.pcp                  t5072.tmp                 s52938.slr                 r52938.hmd                  w5072.wnd              null              null  
sta5302n398w               529n41w                  p5071.pcp                  t5071.tmp                 s52941.slr                 r52941.hmd                  w5071.wnd              null              null  
sta5302n405w               529n41w                  p5070.pcp                  t5070.tmp                 s52941.slr                 r52941.hmd                  w5070.wnd              null              null  
sta5302n412w               529n41w                  p5069.pcp                  t5069.tmp                 s52941.slr                 r52941.hmd                  w5069.wnd              null              null  
sta5302n420w               529n41w                  p5068.pcp                  t5068.tmp                 s52941.slr                 r52941.hmd                  w5068.wnd              null              null  
sta5302n427w               529n44w                  p5067.pcp                  t5067.tmp                 s52944.slr                 r52944.hmd                  w5067.wnd              null              null  
sta5302n435w               529n44w                  p5066.pcp                  t5066.tmp                 s52944.slr                 r52944.hmd                  w5066.wnd              null              null  
sta5303n323w               529n38w                  p5081.pcp                  t5081.tmp                 s52931.slr                 r52931.hmd                  w5081.wnd              null              null  
sta5303n330w               529n38w                  p5080.pcp                  t5080.tmp                 s52934.slr                 r52934.hmd                  w5080.wnd              null              null  
sta5303n338w               529n38w                  p5079.pcp                  t5079.tmp                 s52934.slr                 r52934.hmd                  w5079.wnd              null              null  
sta5303n345w               529n38w                  p5078.pcp                  t5078.tmp                 s52934.slr                 r52934.hmd                  w5078.wnd              null              null  
sta5303n353w               529n38w                  p5077.pcp                  t5077.tmp                 s52934.slr                 r52934.hmd                  w5077.wnd              null              null  
sta5303n360w               529n38w                  p5076.pcp                  t5076.tmp                 s52938.slr                 r52938.hmd                  w5076.wnd              null              null  
sta5303n368w               529n38w                  p5075.pcp                  t5075.tmp                 s52938.slr                 r52938.hmd                  w5075.wnd              null              null  
sta5303n375w               529n38w                  p5074.pcp                  t5074.tmp                 s52938.slr                 r52938.hmd                  w5074.wnd              null              null  
sta5303n383w               529n38w                  p5073.pcp                  t5073.tmp                 s52938.slr                 r52938.hmd                  w5073.wnd              null              null  
sta5304n286w               529n38w                  p5086.pcp                  t5086.tmp                 s52931.slr                 r52931.hmd                  w5086.wnd              null              null  
sta5304n293w               529n38w                  p5085.pcp                  t5085.tmp                 s52931.slr                 r52931.hmd                  w5085.wnd              null              null  
sta5304n301w               529n38w                  p5084.pcp                  t5084.tmp                 s52931.slr                 r52931.hmd                  w5084.wnd              null              null  
sta5304n308w               529n38w                  p5083.pcp                  t5083.tmp                 s52931.slr                 r52931.hmd                  w5083.wnd              null              null  
sta5304n316w               529n38w                  p5082.pcp                  t5082.tmp                 s52931.slr                 r52931.hmd                  w5082.wnd              null              null  
sta5306n420w               529n41w                  p5006.pcp                  t5006.tmp                 s52941.slr                 r52941.hmd                  w5006.wnd              null              null  
sta5306n428w               529n44w                  p5005.pcp                  t5005.tmp                 s52944.slr                 r52944.hmd                  w5005.wnd              null              null  
sta5307n368w               529n38w                  p5013.pcp                  t5013.tmp                 s52938.slr                 r52938.hmd                  w5013.wnd              null              null  
sta5307n375w               529n38w                  p5012.pcp                  t5012.tmp                 s52938.slr                 r52938.hmd                  w5012.wnd              null              null  
sta5307n383w               529n38w                  p5011.pcp                  t5011.tmp                 s52938.slr                 r52938.hmd                  w5011.wnd              null              null  
sta5307n390w               529n38w                  p5010.pcp                  t5010.tmp                 s52938.slr                 r52938.hmd                  w5010.wnd              null              null  
sta5307n398w               529n41w                  p5009.pcp                  t5009.tmp                 s52941.slr                 r52941.hmd                  w5009.wnd              null              null  
sta5307n405w               529n41w                  p5008.pcp                  t5008.tmp                 s52941.slr                 r52941.hmd                  w5008.wnd              null              null  
sta5307n413w               529n41w                  p5007.pcp                  t5007.tmp                 s52941.slr                 r52941.hmd                  w5007.wnd              null              null  