weather-wgn.cli: written by SWAT+ editor v1.2.3 on 2021-01-24 15:52
526n38w                        52.61060      -3.75000     139.00000        32  
 tmp_max_ave   tmp_min_ave    tmp_max_sd    tmp_min_sd       pcp_ave        pcp_sd      pcp_skew       wet_dry       wet_wet      pcp_days       pcp_hhr       slr_ave       dew_ave       wnd_ave  
     5.65261       1.29111       3.24347       3.48494     136.02100       5.66512       2.19422       0.46586       0.45895      23.21880      15.06420       2.38714       0.90269       6.30479  
     5.82055       0.84500       3.08717       3.51284     104.53800       5.28204       2.81655       0.44318       0.45156      20.00000      17.44890       4.41158       0.88383       5.86605  
     7.87545       1.91752       2.82658       3.08993     121.71700       5.00709       2.17184       0.48077       0.44262      22.87500      12.25900       7.29368       0.87735       5.36422  
    10.57610       2.75172       3.46368       3.20807      91.92530       4.30025       2.43117       0.36905       0.44231      19.50000      11.65340      12.44040       0.84357       4.19315  
    13.92900       5.19718       3.74423       3.32353      98.56260       4.53041       2.30588       0.35556       0.44762      19.68750      13.01160      16.12840       0.82760       3.88961  
    16.11770       7.45382       3.62557       3.28395     105.13700       5.21677       2.85357       0.42138       0.43614      20.06250      14.60340      16.36770       0.84432       3.53066  
    18.09970       9.75979       3.97349       2.87262     105.76800       4.99223       3.18614       0.34535       0.44613      20.59380      18.72500      15.56280       0.84307       3.49828  
    17.83150       9.75039       3.68548       2.97783     107.87500       5.12502       2.72966       0.43464       0.43586      21.43750      13.98400      12.38380       0.84942       3.54714  
    15.52370       8.31666       3.08601       3.08014     105.92100       5.36302       2.76419       0.42090       0.43680      19.53120      17.99350       8.63692       0.86479       3.89286  
    11.82640       6.30640       2.66729       3.39209     146.77000       6.97910       3.08797       0.48800       0.45957      23.18750      21.76030       4.82459       0.88689       4.78965  
     8.43419       4.01617       2.75883       3.35671     142.66300       6.10789       2.32328       0.47059       0.45602      23.09380      16.81740       2.40683       0.90756       5.25360  
     6.16382       2.04481       3.26631       3.49549     141.16500       5.76727       1.75395       0.42641       0.45897      22.46880      12.09500       1.74865       0.90752       5.89367  
526n41w                        52.61060      -4.06250      70.00000        32  
 tmp_max_ave   tmp_min_ave    tmp_max_sd    tmp_min_sd       pcp_ave        pcp_sd      pcp_skew       wet_dry       wet_wet      pcp_days       pcp_hhr       slr_ave       dew_ave       wnd_ave  
     6.59092       3.37683       2.82770       3.00770     135.62900       5.64830       2.15108       0.43382       0.45417      22.50000      15.33760       2.66828       0.85514       7.40534  
     6.36760       2.94877       2.64603       2.97989     101.20500       5.15577       2.70414       0.40206       0.44535      19.15620      15.75280       5.01467       0.84425       6.83924  
     7.78360       3.97367       2.16245       2.40976     115.26400       4.84377       2.18254       0.42403       0.44993      22.15620      12.23140       8.50154       0.84637       6.28433  
     9.84715       5.12584       2.53211       2.34863      84.16440       4.02743       2.33385       0.35537       0.43886      18.65620      10.90720      14.41950       0.82240       4.98602  
    12.75730       7.59322       2.68522       2.31758      88.30090       4.30070       2.44004       0.32927       0.43621      18.12500      12.52760      18.87500       0.81357       4.65071  
    14.95750      10.07840       2.54690       2.01808      93.38840       4.78132       2.83510       0.41449       0.43252      19.21880      13.89440      19.29460       0.83015       4.29093  
    16.83130      12.07540       2.61552       1.79545      97.48740       4.67260       2.85669       0.35530       0.45412      20.09380      15.15560      18.08330       0.83575       4.25935  
    16.95370      12.31360       2.47598       1.83791     103.50900       4.94004       2.61063       0.42508       0.42707      20.78120      14.37780      14.44440       0.83329       4.42465  
    15.34530      10.95160       2.25548       1.98999     105.15700       5.29184       2.72169       0.38701       0.43399      18.93750      19.14560      10.00050       0.83367       4.95332  
    12.36540       8.72222       2.28175       2.50308     149.30000       7.00979       3.16214       0.45588       0.45833      22.50000      23.29480       5.67246       0.84251       6.01922  
     9.40327       6.29343       2.44317       2.69401     146.76600       6.20387       2.30926       0.41991       0.45679      22.78120      17.13650       2.85922       0.85475       6.49634  
     7.29404       4.19704       2.87602       2.97584     143.67700       5.83201       1.72078       0.39161       0.45988      21.81250      12.12380       1.99777       0.85647       7.06398  
526n44w                        52.61060      -4.37500   -9999.00000        32  
 tmp_max_ave   tmp_min_ave    tmp_max_sd    tmp_min_sd       pcp_ave        pcp_sd      pcp_skew       wet_dry       wet_wet      pcp_days       pcp_hhr       slr_ave       dew_ave       wnd_ave  
     7.64569       5.08098       2.54791       2.74524     129.75400       5.46596       2.18640       0.38276       0.45584      21.93750      15.22530       2.84734       0.81513       8.36495  
     7.17347       4.62694       2.38601       2.71442      94.18910       4.87687       2.63771       0.40439       0.43932      18.28120      13.59880       5.41983       0.81015       7.70021  
     8.17004       5.55845       1.81707       2.09200     104.74900       4.58611       2.30804       0.40193       0.44640      21.28120      12.61860       9.33395       0.81818       7.10890  
     9.78242       6.79316       2.02496       1.97960      74.09040       3.78233       2.43563       0.33824       0.43297      17.25000      10.56710      15.80900       0.80293       5.70985  
    12.34740       9.16383       2.14605       1.91802      74.55570       3.92256       2.64692       0.29825       0.42884      16.68750      10.98860      20.78090       0.80036       5.33064  
    14.51380      11.68000       1.98118       1.61157      78.20920       4.28190       3.13025       0.38974       0.41579      17.81250      12.46270      21.23770       0.81822       4.95126  
    16.32150      13.53400       1.88967       1.46142      82.87380       4.20820       2.80840       0.34278       0.44371      18.87500      11.76580      19.69070       0.82832       4.91511  
    16.69660      13.93580       1.80617       1.47033      91.95230       4.58698       2.71387       0.40761       0.42308      19.50000      14.10710      15.78860       0.81987       5.17209  
    15.57340      12.74910       1.77105       1.60112      96.99530       5.04849       2.82916       0.37500       0.42808      18.25000      18.42460      10.87870       0.80816       5.86119  
    13.09570      10.50410       2.03662       2.11774     142.51800       6.71012       3.16738       0.44983       0.45093      21.96880      23.57170       6.23552       0.80608       7.08127  
    10.45440       8.06698       2.21752       2.35110     143.13400       6.12329       2.32622       0.40244       0.46078      22.31250      16.33190       3.16558       0.81169       7.58958  
     8.47856       5.94258       2.59451       2.68964     139.15500       5.69749       1.75960       0.37931       0.46254      21.68750      12.70900       2.16351       0.81424       8.07629  
526n47w                        52.61060      -4.68750   -9999.00000        32  
 tmp_max_ave   tmp_min_ave    tmp_max_sd    tmp_min_sd       pcp_ave        pcp_sd      pcp_skew       wet_dry       wet_wet      pcp_days       pcp_hhr       slr_ave       dew_ave       wnd_ave  
     8.78233       6.49116       2.39493       2.58988     118.40800       5.12921       2.33160       0.38079       0.45072      21.56250      14.72360       2.92431       0.78096       9.18401  
     8.19942       5.99297       2.26816       2.56113      83.51560       4.44254       2.70194       0.38484       0.43672      17.53120      11.73270       5.62703       0.77988       8.45051  
     8.99465       6.82729       1.66968       1.91385      89.99680       4.22670       2.52212       0.38921       0.43906      20.00000      12.59250       9.79091       0.79102       7.83738  
    10.31760       7.97338       1.82434       1.74988      61.84960       3.52220       2.78985       0.33625       0.40637      15.68750      10.62840      16.60910       0.78280       6.36843  
    12.63700      10.17000       1.97440       1.69360      56.73320       3.40175       2.99801       0.27872       0.40741      14.34380       8.60006      21.84620       0.78553       5.92854  
    14.70570      12.57720       1.78040       1.42778      59.28820       3.75045       3.76387       0.35319       0.39184      15.31250      11.83250      22.19690       0.80628       5.51339  
    16.48600      14.38930       1.64025       1.28930      61.76020       3.54857       3.05948       0.32026       0.42964      16.65620       9.35348      20.38510       0.81764       5.46816  
    16.98530      14.91820       1.56096       1.28688      73.27370       4.00451       2.98992       0.37063       0.40497      17.59380      13.17350      16.41650       0.80580       5.78872  
    16.14040      13.94350       1.54416       1.42743      81.24880       4.58783       3.07768       0.36341       0.42546      17.18750      15.83690      11.27140       0.78588       6.61984  
    13.98310      11.81660       1.87411       1.93488     126.23400       6.10931       3.23755       0.39748       0.44741      21.09380      22.58640       6.51379       0.77572       7.97377  
    11.56080       9.46118       2.06587       2.15663     131.69500       5.83071       2.41172       0.40000       0.45755      21.71880      14.39010       3.32591       0.77621       8.53571  
     9.67698       7.38162       2.42022       2.51231     127.12000       5.34186       1.89047       0.36774       0.45104      21.06250      12.77150       2.24584       0.77890       8.93198  
529n38w                        52.92280      -3.75000     717.00000        32  
 tmp_max_ave   tmp_min_ave    tmp_max_sd    tmp_min_sd       pcp_ave        pcp_sd      pcp_skew       wet_dry       wet_wet      pcp_days       pcp_hhr       slr_ave       dew_ave       wnd_ave  
     5.48657       1.28967       3.19733       3.43432     147.94800       6.06437       2.21783       0.49565       0.45669      23.81250      15.03660       2.23346       0.90840       5.94220  
     5.59976       0.87736       3.05461       3.44003     112.28200       5.27887       2.44016       0.46586       0.45649      20.46880      15.42230       4.15657       0.89081       5.51307  
     7.55875       1.93353       2.84615       3.00322     135.82100       5.19116       1.85488       0.50000       0.45132      23.75000      13.26720       7.03691       0.88468       5.03855  
    10.24460       2.81971       3.48785       3.10215     105.12600       4.66000       2.18125       0.40125       0.44306      20.03120      12.46810      12.15340       0.85089       3.92056  
    13.66880       5.16421       3.79380       3.19729     109.84800       5.00615       2.48949       0.37389       0.45023      20.40620      16.69690      16.01710       0.83159       3.64431  
    15.78330       7.45201       3.66946       3.24544     120.58500       5.86378       2.70776       0.42157       0.44190      20.43750      14.70160      15.99360       0.84899       3.33226  
    17.75280       9.78107       3.96453       2.73852     122.40500       5.60824       3.03933       0.37838       0.45259      21.75000      19.06110      15.12300       0.84897       3.30006  
    17.42280       9.83496       3.64900       2.84422     126.22900       5.68082       2.51437       0.44803       0.45021      22.28120      14.43640      11.95080       0.85721       3.36246  
    15.16050       8.40926       3.05998       2.99744     119.28200       5.59899       2.41656       0.44667       0.43939      20.62500      16.29530       8.22328       0.87124       3.70983  
    11.55450       6.35549       2.70544       3.25127     159.82300       7.00547       2.68000       0.51046       0.46215      23.53120      20.99550       4.56903       0.89217       4.50088  
     8.20009       4.03441       2.76193       3.24893     160.68800       6.43111       2.12743       0.45550       0.46164      24.03120      16.98080       2.23974       0.91419       4.96266  
     5.98651       2.07189       3.23820       3.40334     154.54400       6.01320       1.60381       0.44898       0.45467      23.09380      11.68640       1.61634       0.91584       5.51309  
529n41w                        52.92280      -4.06250      40.00000        32  
 tmp_max_ave   tmp_min_ave    tmp_max_sd    tmp_min_sd       pcp_ave        pcp_sd      pcp_skew       wet_dry       wet_wet      pcp_days       pcp_hhr       slr_ave       dew_ave       wnd_ave  
     6.18714       2.37428       3.00705       3.25980     149.71500       6.07999       2.16969       0.46414       0.46093      23.59380      15.21320       2.31251       0.87982       6.62750  
     6.17954       1.88962       2.85342       3.28386     110.82600       5.17107       2.28153       0.44922       0.45525      20.25000      14.03080       4.38328       0.86557       6.09494  
     7.93664       2.92422       2.62578       2.81340     130.71000       5.05500       1.78645       0.47200       0.44879      23.18750      13.02600       7.52415       0.86254       5.58570  
    10.46210       3.85822       3.26892       2.89592      97.44580       4.47155       2.32667       0.37349       0.44586      19.62500      12.45130      13.09100       0.83041       4.34728  
    13.75630       6.19972       3.64043       2.92393      99.02720       4.68827       2.54896       0.34771       0.44427      19.34380      14.64340      17.42230       0.81133       4.04438  
    15.76620       8.34323       3.44450       3.01741     109.36700       5.41126       2.67771       0.41693       0.43994      20.03120      13.89830      17.21540       0.83261       3.71581  
    17.62750      10.61380       3.65317       2.62736     113.13800       5.16079       2.89265       0.40196       0.44752      21.43750      17.56270      15.99870       0.83706       3.68490  
    17.41060      10.74230       3.35086       2.71221     122.50500       5.53114       2.39183       0.45608       0.44397      21.75000      12.53000      12.75280       0.84380       3.79926  
    15.39540       9.47941       2.80166       2.77469     118.90700       5.57744       2.36580       0.44518       0.44006      20.59380      16.25750       8.69022       0.85020       4.24454  
    12.06230       7.46808       2.57104       2.97578     161.34300       6.91754       2.59603       0.47059       0.46021      23.56250      20.38150       4.88337       0.86407       5.16869  
     8.89954       5.12621       2.61145       3.07077     162.95500       6.40666       2.07174       0.45454       0.46194      23.81250      17.41460       2.38849       0.88246       5.67741  
     6.77151       3.12429       3.04863       3.24929     157.64900       6.09388       1.58154       0.41129       0.46331      23.00000      11.88830       1.69197       0.88568       6.21993  
529n44w                        52.92280      -4.37500      38.00000        32  
 tmp_max_ave   tmp_min_ave    tmp_max_sd    tmp_min_sd       pcp_ave        pcp_sd      pcp_skew       wet_dry       wet_wet      pcp_days       pcp_hhr       slr_ave       dew_ave       wnd_ave  
     7.16080       4.06248       2.73858       2.91791     143.94700       5.85481       2.17394       0.41735       0.46133      23.43750      14.60640       2.48747       0.83927       7.81812  
     6.88480       3.54085       2.58432       2.92204     103.44600       4.86068       2.18252       0.44604       0.44888      19.56250      12.17370       4.77739       0.83121       7.15456  
     8.21748       4.49472       2.21109       2.38024     119.36400       4.74735       1.85539       0.43609       0.45454      22.68750      12.94510       8.32115       0.83420       6.61025  
    10.24280       5.52986       2.66487       2.33189      86.66260       4.23672       2.56533       0.36667       0.43500      18.75000      12.66760      14.45060       0.81137       5.21130  
    13.15200       7.79699       2.98224       2.30075      85.26020       4.29986       2.64938       0.33174       0.43082      17.84380      12.33740      19.27130       0.79970       4.84523  
    15.14780       9.97534       2.74933       2.25698      93.24970       4.86214       2.90545       0.38440       0.43261      18.78120      13.38010      19.11730       0.82241       4.47821  
    16.93600      12.05720       2.81641       2.02203      98.11670       4.71351       2.90522       0.37427       0.44923      20.31250      15.62420      17.57630       0.83070       4.45347  
    17.00540      12.35860       2.59634       2.05466     111.13800       5.17342       2.39308       0.42724       0.43199      20.90620      13.18970      14.09740       0.83059       4.66280  
    15.49040      11.24260       2.25122       2.14148     111.28900       5.32927       2.37826       0.41693       0.43994      20.03120      14.57060       9.58204       0.82528       5.28933  
    12.69130       9.21504       2.29677       2.45245     155.65700       6.60595       2.51340       0.48000       0.46361      23.18750      19.08370       5.44306       0.82788       6.40827  
     9.88426       6.87475       2.38582       2.63492     157.82600       6.19827       2.03019       0.43810       0.46133      23.43750      16.92130       2.67872       0.83840       6.96895  
     7.88651       4.85074       2.77660       2.88567     153.13800       5.92948       1.60198       0.40164       0.46081      23.12500      11.79040       1.84922       0.84196       7.44061  
529n47w                        52.92280      -4.68750   -9999.00000        32  
 tmp_max_ave   tmp_min_ave    tmp_max_sd    tmp_min_sd       pcp_ave        pcp_sd      pcp_skew       wet_dry       wet_wet      pcp_days       pcp_hhr       slr_ave       dew_ave       wnd_ave  
     8.49833       6.27886       2.35155       2.48025     130.59100       5.42369       2.23269       0.42636       0.45777      22.93750      13.22270       2.75832       0.78763       9.51463  
     7.86723       5.74349       2.24850       2.50036      90.49690       4.35379       2.18193       0.41806       0.44628      18.90620      10.06730       5.33891       0.78809       8.69448  
     8.58511       6.54051       1.64458       1.87978     101.41700       4.28662       2.02461       0.41914       0.45283      21.53120      12.08600       9.42790       0.80035       8.11190  
     9.81064       7.68699       1.75421       1.69572      72.56090       3.90885       2.93569       0.33494       0.42018      17.03120      13.10500      16.23230       0.79482       6.51576  
    12.08430       9.81288       1.92285       1.64149      68.54670       3.79146       2.79725       0.29436       0.41487      15.96880       9.78457      21.56410       0.79795       6.04601  
    14.12410      12.17210       1.70100       1.41239      72.50640       4.27724       3.44249       0.36804       0.41134      17.09380      13.44260      21.69940       0.81950       5.61985  
    15.89330      13.98150       1.55027       1.27377      77.43230       4.16496       3.01395       0.37037       0.43271      18.34380      13.25040      19.85580       0.83161       5.60583  
    16.40570      14.52820       1.48862       1.26820      91.86750       4.62202       2.58368       0.39895       0.41080      19.09380      13.55560      15.98450       0.81946       5.95196  
    15.63530      13.61350       1.47726       1.40566      96.60930       4.83114       2.36489       0.39481       0.44535      19.15620      13.13260      10.89870       0.79739       6.84566  
    13.60170      11.51650       1.85401       1.90557     142.99500       6.14117       2.42493       0.49632       0.45556      22.50000      17.57920       6.24812       0.78445       8.21754  
    11.25040       9.20179       2.04817       2.08641     145.47800       5.84098       2.04082       0.41778       0.46395      22.96880      15.48900       3.11042       0.78345       8.83345  
     9.41667       7.17499       2.37027       2.42809     140.54200       5.54440       1.66078       0.36090       0.45961      22.43750      11.10670       2.08807       0.78592       9.17536  
532n38w                        53.23500      -3.75000     273.00000        32  
 tmp_max_ave   tmp_min_ave    tmp_max_sd    tmp_min_sd       pcp_ave        pcp_sd      pcp_skew       wet_dry       wet_wet      pcp_days       pcp_hhr       slr_ave       dew_ave       wnd_ave  
     6.10784       2.07355       3.05131       3.47823     142.92100       5.91050       2.30193       0.49356       0.45323      23.71880      14.57700       2.22020       0.88669       6.08643  
     6.12136       1.57646       2.92944       3.52631     105.84000       4.88655       2.29148       0.48819       0.44769      20.31250      14.40750       4.21059       0.87184       5.65911  
     7.95853       2.68979       2.76019       3.03516     130.72600       5.07548       1.85097       0.48963       0.44873      23.46880      12.35400       7.32758       0.86403       5.19281  
    10.59910       3.50393       3.45784       3.20711     100.12200       4.61171       2.27476       0.39039       0.44019      19.59380      11.47320      12.73590       0.83032       4.09009  
    14.17840       5.89195       3.89716       3.20009      98.16220       4.66776       2.55037       0.39167       0.43175      19.68750      12.33110      16.94820       0.80332       3.80068  
    16.32980       8.20219       3.80155       3.31689     113.37600       5.72486       2.71521       0.41945       0.43740      19.71880      14.04830      16.73450       0.81835       3.55050  
    18.11540      10.60820       3.88741       2.59672     114.12100       5.19229       2.69824       0.38225       0.45637      21.84380      14.91040      15.65590       0.82573       3.53382  
    17.71950      10.73300       3.44438       2.78494     121.13500       5.46536       2.44740       0.45066       0.44041      21.50000      15.27750      12.32130       0.83643       3.61348  
    15.59110       9.36405       2.98981       2.96585     116.28800       5.51299       2.38541       0.47619       0.43994      20.81250      11.29830       8.38240       0.84568       4.00631  
    12.08340       7.24212       2.66241       3.20429     153.74000       6.58964       2.39305       0.51709       0.46174      23.68750      18.84520       4.69372       0.86586       4.73963  
     8.78162       4.89714       2.65450       3.22351     157.02100       6.14768       1.96952       0.46392       0.46084      23.93750      15.44570       2.26978       0.88960       5.23517  
     6.64938       2.83050       3.09055       3.45630     149.95600       5.92905       1.68788       0.44177       0.45850      22.96880      11.89040       1.61111       0.89508       5.66538  
532n41w                        53.23500      -4.06250   -9999.00000        32  
 tmp_max_ave   tmp_min_ave    tmp_max_sd    tmp_min_sd       pcp_ave        pcp_sd      pcp_skew       wet_dry       wet_wet      pcp_days       pcp_hhr       slr_ave       dew_ave       wnd_ave  
     6.51580       2.91480       2.91330       3.21318     151.88700       6.07405       2.21609       0.45495       0.45844      24.06250      14.77520       2.23225       0.86504       6.79675  
     6.39740       2.40301       2.78170       3.27222     110.00700       4.93167       2.09140       0.47809       0.45176      20.40620      13.13500       4.28750       0.85274       6.26916  
     8.03629       3.45537       2.55849       2.76625     133.96500       5.12812       1.74782       0.46694       0.45467      23.43750      11.72820       7.54679       0.84860       5.77752  
    10.49130       4.38821       3.24244       2.85061     100.47700       4.66805       2.34677       0.39697       0.43968      19.68750      11.84450      13.25020       0.81796       4.51636  
    13.87880       6.77698       3.72043       2.74024      96.07450       4.55051       2.44149       0.37047       0.44057      19.71880      10.68730      17.75790       0.79394       4.19307  
    15.93640       8.96552       3.54151       2.86959     110.50100       5.53153       2.65651       0.43072       0.43471      19.62500      13.15780      17.37590       0.81424       3.91330  
    17.63350      11.24550       3.54794       2.28735     113.61500       5.09157       2.57919       0.41035       0.45442      21.93750      14.15370      16.03800       0.82558       3.90438  
    17.35900      11.42630       3.11735       2.51809     125.70600       5.53818       2.32885       0.44291       0.44381      21.96880      13.76650      12.72020       0.83389       4.03251  
    15.45840      10.15900       2.71631       2.60938     121.77100       5.61177       2.18110       0.47368       0.44444      21.09380      12.02650       8.56908       0.83700       4.51609  
    12.24890       8.04497       2.53503       2.85766     163.02600       6.71076       2.20609       0.50909       0.47021      24.12500      17.55280       4.85672       0.84883       5.37265  
     9.17146       5.71956       2.53963       2.95758     167.41100       6.30897       1.83207       0.48087       0.46332      24.28120      15.73050       2.33288       0.86686       5.92421  
     7.13641       3.67362       2.94592       3.19279     160.62800       6.11629       1.53153       0.41702       0.46195      23.40620      12.11480       1.63132       0.87170       6.36942  
532n44w                        53.23500      -4.37500      28.00000        32  
 tmp_max_ave   tmp_min_ave    tmp_max_sd    tmp_min_sd       pcp_ave        pcp_sd      pcp_skew       wet_dry       wet_wet      pcp_days       pcp_hhr       slr_ave       dew_ave       wnd_ave  
     7.24614       4.30187       2.69339       2.81663     150.40100       5.95267       2.18110       0.44595       0.45974      24.06250      14.95610       2.36135       0.83317       8.01525  
     6.87847       3.77730       2.56050       2.86151     106.42000       4.73817       2.02222       0.46875       0.45062      20.25000      11.12170       4.57822       0.82642       7.35633  
     8.10336       4.71054       2.16757       2.32128     127.36000       4.90220       1.73276       0.46531       0.45783      23.34380      11.21990       8.13757       0.82876       6.83748  
    10.01990       5.75003       2.60380       2.24418      94.93000       4.53834       2.43789       0.36599       0.43719      19.15620      12.50180      14.27040       0.80833       5.38001  
    12.93410       8.00292       2.97209       2.12112      89.15040       4.32247       2.39336       0.35825       0.43356      18.81250      10.24630      19.14680       0.79448       4.97895  
    14.96080      10.21390       2.72862       2.07443     100.79100       5.20075       2.77166       0.41210       0.42904      19.15620      13.72620      18.83290       0.81720       4.64444  
    16.63970      12.28220       2.65873       1.74654     105.28900       4.92241       2.70527       0.40453       0.45095      21.34380      13.72230      17.26190       0.83028       4.64566  
    16.69410      12.60970       2.38038       1.89062     120.33300       5.42296       2.36173       0.40729       0.44638      21.56250      14.88580      13.77640       0.83116       4.86392  
    15.27830      11.50520       2.16009       1.97468     117.86200       5.45427       2.18700       0.46528       0.44345      21.00000      12.51740       9.27874       0.82342       5.52660  
    12.61160       9.42557       2.27012       2.33868     162.91600       6.58781       2.13587       0.50230       0.46581      24.21880      17.08240       5.30636       0.82360       6.57941  
     9.90577       7.11400       2.34663       2.52215     167.38000       6.23445       1.80547       0.46893       0.46743      24.46880      16.34970       2.55613       0.83283       7.19296  
     8.00082       5.11110       2.71106       2.78030     160.25500       6.02072       1.49079       0.42857       0.45844      23.31250      11.46960       1.74621       0.83656       7.58897  
532n47w                        53.23500      -4.68750   -9999.00000        32  
 tmp_max_ave   tmp_min_ave    tmp_max_sd    tmp_min_sd       pcp_ave        pcp_sd      pcp_skew       wet_dry       wet_wet      pcp_days       pcp_hhr       slr_ave       dew_ave       wnd_ave  
     8.38493       6.16873       2.34089       2.38189     138.56200       5.56519       2.19829       0.44298       0.45942      23.87500      14.08910       2.60749       0.79164       9.74188  
     7.70658       5.61608       2.25584       2.43531      95.12300       4.30764       2.08578       0.44030       0.45440      19.87500       9.82272       5.08273       0.79304       8.92218  