wnd.cli: Wind speed file names - file written by SWAT+ editor 2021-01-24 15:52:04.066980
filename
w4552.wnd
w4553.wnd
w4596.wnd
w4597.wnd
w4598.wnd
w4599.wnd
w4646.wnd
w4647.wnd
w4648.wnd
w4649.wnd
w4650.wnd
w4651.wnd
w4695.wnd
w4696.wnd
w4697.wnd
w4698.wnd
w4699.wnd
w4700.wnd
w4701.wnd
w4702.wnd
w4703.wnd
w4704.wnd
w4705.wnd
w4706.wnd
w4707.wnd
w4708.wnd
w4753.wnd
w4754.wnd
w4755.wnd
w4756.wnd
w4757.wnd
w4758.wnd
w4759.wnd
w4760.wnd
w4761.wnd
w4762.wnd
w4763.wnd
w4764.wnd
w4765.wnd
w4766.wnd
w4767.wnd
w4768.wnd
w4769.wnd
w4770.wnd
w4816.wnd
w4817.wnd
w4818.wnd
w4819.wnd
w4820.wnd
w4821.wnd
w4822.wnd
w4823.wnd
w4824.wnd
w4825.wnd
w4826.wnd
w4827.wnd
w4828.wnd
w4829.wnd
w4830.wnd
w4831.wnd
w4832.wnd
w4833.wnd
w4834.wnd
w4835.wnd
w4880.wnd
w4881.wnd
w4882.wnd
w4883.wnd
w4884.wnd
w4885.wnd
w4886.wnd
w4887.wnd
w4888.wnd
w4889.wnd
w4890.wnd
w4891.wnd
w4892.wnd
w4893.wnd
w4894.wnd
w4895.wnd
w4896.wnd
w4897.wnd
w4898.wnd
w4899.wnd
w4943.wnd
w4944.wnd
w4945.wnd
w4946.wnd
w4947.wnd
w4948.wnd
w4949.wnd
w4950.wnd
w4951.wnd
w4952.wnd
w4953.wnd
w4954.wnd
w4955.wnd
w4956.wnd
w4957.wnd
w4958.wnd
w4959.wnd
w4960.wnd
w5005.wnd
w5006.wnd
w5007.wnd
w5008.wnd
w5009.wnd
w5010.wnd
w5011.wnd
w5012.wnd
w5013.wnd
w5014.wnd
w5015.wnd
w5016.wnd
w5017.wnd
w5018.wnd
w5019.wnd
w5020.wnd
w5021.wnd
w5022.wnd
w5023.wnd
w5066.wnd
w5067.wnd
w5068.wnd
w5069.wnd
w5070.wnd
w5071.wnd
w5072.wnd
w5073.wnd
w5074.wnd
w5075.wnd
w5076.wnd
w5077.wnd
w5078.wnd
w5079.wnd
w5080.wnd
w5081.wnd
w5082.wnd
w5083.wnd
w5084.wnd
w5085.wnd
w5086.wnd
w5127.wnd
w5128.wnd
w5129.wnd
w5130.wnd
w5131.wnd
w5132.wnd
w5133.wnd
w5134.wnd
w5135.wnd
w5136.wnd
w5137.wnd
w5138.wnd
w5139.wnd
w5140.wnd
w5141.wnd
w5142.wnd
w5143.wnd
w5144.wnd
w5145.wnd
w5146.wnd
w5147.wnd
w5148.wnd
w5149.wnd
w5196.wnd
w5197.wnd
w5198.wnd
w5199.wnd
w5200.wnd
w5201.wnd
w5202.wnd
w5203.wnd
w5204.wnd
w5205.wnd
w5206.wnd
w5207.wnd
w5208.wnd
w5209.wnd
w5210.wnd
w5211.wnd
w5212.wnd
w5213.wnd
w5214.wnd
w5215.wnd
w5216.wnd
w5218.wnd
w5219.wnd
w5220.wnd
w5272.wnd
w5273.wnd
w5274.wnd
w5275.wnd
w5276.wnd
w5277.wnd
w5278.wnd
w5279.wnd
w5280.wnd
w5281.wnd
w5282.wnd
w5283.wnd
w5284.wnd
w5285.wnd
w5286.wnd
w5287.wnd
w5288.wnd
w5289.wnd
w5348.wnd
w5349.wnd
w5350.wnd
w5351.wnd
w5352.wnd
w5353.wnd
w5354.wnd
w5355.wnd
w5356.wnd
w5357.wnd
w5358.wnd
w5359.wnd
w5425.wnd
w5426.wnd
w5427.wnd
w5428.wnd
w5429.wnd
w5430.wnd
w5431.wnd
w5503.wnd
w5504.wnd
w5505.wnd
w5506.wnd
w5507.wnd
w5508.wnd
w5581.wnd
w5582.wnd
w5583.wnd
w5584.wnd
w5585.wnd
w5586.wnd
w5659.wnd
w5660.wnd
w5661.wnd
w5738.wnd
w5739.wnd
w5740.wnd
w5741.wnd
w5818.wnd
w5819.wnd
